
     RDKit          3D

  4  2  0  0  0  0  0  0  0  0999 V2000
   -0.5152    0.5310   -0.0342 O   0  0  0  0  0  0  0  0  0  0  0  0
   -1.4074   -0.4363   -0.0155 O   0  0  0  0  0  1  0  0  0  0  0  0
    0.4806    0.0043    0.1375 H   0  0  0  0  0  0  0  0  0  0  0  0
    1.4421   -0.0990   -0.0879 H   0  0  0  0  0 15  0  0  0  0  0  0
  1  2  1  0
  1  3  1  0
M  RAD  1   2   2
M  END
