
     RDKit          3D

  4  2  0  0  0  0  0  0  0  0999 V2000
   -0.4943    0.5745   -0.0351 O   0  0  0  0  0  0  0  0  0  0  0  0
   -1.4056   -0.3849   -0.0212 O   0  0  0  0  0  1  0  0  0  0  0  0
    0.4780   -0.0134    0.1346 H   0  0  0  0  0  0  0  0  0  0  0  0
    1.4219   -0.1762   -0.0784 H   0  0  0  0  0 15  0  0  0  0  0  0
  1  2  1  0
  1  3  1  0
M  RAD  1   2   2
M  END
