
     RDKit          3D

 18 17  0  0  0  0  0  0  0  0999 V2000
   -1.2440   -1.4434    0.2033 C   0  0  0  0  0  0  0  0  0  0  0  0
    0.1489   -0.9969    0.1608 C   0  0  0  0  0  0  0  0  0  0  0  0
    0.7320   -0.7854   -1.0660 C   0  0  0  0  0  0  0  0  0  0  0  0
    0.6173   -0.2387    1.2155 C   0  0  0  0  0  0  0  0  0  0  0  0
    1.7619    0.1293   -1.2478 C   0  0  0  0  0  0  0  0  0  0  0  0
    2.2438    0.8148   -0.1578 C   0  0  0  0  0  0  0  0  0  0  0  0
    1.6187    0.7120    1.0625 C   0  0  0  0  0  0  0  0  0  0  0  0
   -1.7260   -1.7384    1.4517 O   0  0  0  0  0  1  0  0  0  0  0  0
   -1.9150   -0.3550   -0.1146 H   0  0  0  0  0  0  0  0  0  0  0  0
   -1.5544   -2.1101   -0.6018 H   0  0  0  0  0  0  0  0  0  0  0  0
    0.1879   -1.0598   -1.9649 H   0  0  0  0  0  0  0  0  0  0  0  0
    2.1166    0.4328   -2.2199 H   0  0  0  0  0  0  0  0  0  0  0  0
    3.1013    1.4559   -0.2181 H   0  0  0  0  0  0  0  0  0  0  0  0
    2.0406    1.2008    1.9385 H   0  0  0  0  0  0  0  0  0  0  0  0
    0.2969   -0.5597    2.2054 H   0  0  0  0  0  0  0  0  0  0  0  0
   -2.9612    1.8389   -0.5193 O   0  0  0  0  0  0  0  0  0  0  0  0
   -2.6184    0.5583   -0.5507 O   0  0  0  0  0  1  0  0  0  0  0  0
   -2.8468    2.1447    0.4233 H   0  0  0  0  0  0  0  0  0  0  0  0
  1  2  1  0
  1  9  1  0
  1 10  1  0
  1  8  1  0
  2  3  2  0
  2  4  1  0
  3 11  1  0
  3  5  1  0
  4  7  2  0
  4 15  1  0
  5 12  1  0
  5  6  2  0
  6  7  1  0
  6 13  1  0
  7 14  1  0
 16 17  1  0
 16 18  1  0
M  RAD  2   8   2  17   2
M  END
