
     RDKit          3D

  6  4  0  0  0  0  0  0  0  0999 V2000
    1.5250   -0.0742    0.5133 O   0  0  0  0  0  0  0  0  0  0  0  0
    2.1426    0.4869   -0.5043 O   0  0  0  0  0  1  0  0  0  0  0  0
    0.5203   -0.5039    0.0510 H   0  0  0  0  0  0  0  0  0  0  0  0
   -1.8508   -0.1153    0.0077 O   0  0  0  0  0  0  0  0  0  0  0  0
   -0.6585   -0.6510   -0.1455 O   0  0  0  0  0  1  0  0  0  0  0  0
   -1.6786    0.8574    0.0776 H   0  0  0  0  0  0  0  0  0  0  0  0
  1  2  1  0
  1  3  1  0
  4  5  1  0
  4  6  1  0
M  RAD  2   2   2   5   2
M  END
