
     RDKit          3D

  6  4  0  0  0  0  0  0  0  0999 V2000
    1.5257   -0.0103    0.5864 O   0  0  0  0  0  0  0  0  0  0  0  0
    2.1782    0.3727   -0.4978 O   0  0  0  0  0  1  0  0  0  0  0  0
    0.5321   -0.4595    0.0706 H   0  0  0  0  0  0  0  0  0  0  0  0
   -1.8646   -0.1174   -0.1109 O   0  0  0  0  0  0  0  0  0  0  0  0
   -0.6492   -0.6463   -0.0713 O   0  0  0  0  0  1  0  0  0  0  0  0
   -1.7222    0.8607    0.0230 H   0  0  0  0  0  0  0  0  0  0  0  0
  1  2  1  0
  1  3  1  0
  4  5  1  0
  4  6  1  0
M  RAD  2   2   2   5   2
M  END
