
     RDKit          3D

 10  8  0  0  0  0  0  0  0  0999 V2000
   -1.0518   -0.4710   -0.2280 C   0  0  0  0  0  0  0  0  0  0  0  0
   -1.7471    0.5408   -0.8447 O   0  0  0  0  0  0  0  0  0  0  0  0
   -1.1932   -0.5263    1.1372 O   0  0  0  0  0  0  0  0  0  0  0  0
    0.1911   -0.1146   -0.3840 H   0  0  0  0  0  0  0  0  0  0  0  0
   -1.0616   -1.4343   -0.7442 H   0  0  0  0  0  0  0  0  0  0  0  0
   -1.6841    1.6057   -0.0897 O   0  0  0  0  0  1  0  0  0  0  0  0
   -0.3267   -0.4763    1.6271 H   0  0  0  0  0  0  0  0  0  0  0  0
    2.6516   -0.0170   -0.1620 O   0  0  0  0  0  0  0  0  0  0  0  0
    1.4125    0.0491   -0.6311 O   0  0  0  0  0  1  0  0  0  0  0  0
    2.8094    0.8438    0.3194 H   0  0  0  0  0  0  0  0  0  0  0  0
  1  2  1  0
  1  4  1  0
  1  5  1  0
  1  3  1  0
  2  6  1  0
  3  7  1  0
  8 10  1  0
  8  9  1  0
M  RAD  2   6   2   9   2
M  END
