
     RDKit          3D

 19 17  0  0  0  0  0  0  0  0999 V2000
   -0.7199   -0.1945    0.4124 C   0  0  0  0  0  0  0  0  0  0  0  0
    0.7303   -0.0632    0.7143 C   0  0  0  0  0  0  0  0  0  0  0  0
   -1.0768   -1.1548   -0.6630 C   0  0  0  0  0  0  0  0  0  0  0  0
    1.5930   -0.5204   -0.4224 C   0  0  0  0  0  0  0  0  0  0  0  0
   -1.6084   -2.2941   -0.0801 O   0  0  0  0  0  0  0  0  0  0  0  0
    2.9014   -0.0845   -0.1597 O   0  0  0  0  0  0  0  0  0  0  0  0
   -1.0160    0.9840   -0.1300 H   0  0  0  0  0  0  0  0  0  0  0  0
   -1.3899   -0.1763    1.2718 H   0  0  0  0  0  0  0  0  0  0  0  0
    0.9860    1.0102    0.9041 H   0  0  0  0  0  0  0  0  0  0  0  0
    0.9357   -0.5908    1.6572 H   0  0  0  0  0  0  0  0  0  0  0  0
   -1.8841   -0.7300   -1.3120 H   0  0  0  0  0  0  0  0  0  0  0  0
   -0.2278   -1.3594   -1.3254 H   0  0  0  0  0  0  0  0  0  0  0  0
    1.2734    0.0207   -1.3344 H   0  0  0  0  0  0  0  0  0  0  0  0
    1.6415   -1.6128   -0.5434 H   0  0  0  0  0  0  0  0  0  0  0  0
   -0.9149   -2.5355    1.0139 O   0  0  0  0  0  1  0  0  0  0  0  0
    3.0015    0.1523    0.7995 H   0  0  0  0  0  0  0  0  0  0  0  0
   -1.4701    3.3723   -0.6081 O   0  0  0  0  0  0  0  0  0  0  0  0
   -1.3658    2.0612   -0.5222 O   0  0  0  0  0  1  0  0  0  0  0  0
   -1.3890    3.7154    0.3275 H   0  0  0  0  0  0  0  0  0  0  0  0
  1  8  1  0
  1  3  1  0
  1  2  1  0
  1  7  1  0
  2 10  1  0
  2  4  1  0
  2  9  1  0
  3  5  1  0
  3 11  1  0
  3 12  1  0
  4 14  1  0
  4 13  1  0
  4  6  1  0
  5 15  1  0
  6 16  1  0
 17 19  1  0
 17 18  1  0
M  RAD  2  15   2  18   2
M  END
