
     RDKit          3D

  7  5  0  0  0  0  0  0  0  0999 V2000
    2.9432    0.1490   -0.4904 O   0  0  0  0  0  1  0  0  0  0  0  0
    1.7489   -0.1092   -0.0557 H   0  0  0  0  0  0  0  0  0  0  0  0
   -1.4799   -0.0304   -0.0087 C   0  0  0  0  0  0  0  0  0  0  0  0
   -0.4104   -0.4408    0.7913 O   0  0  0  0  0  0  0  0  0  0  0  0
   -1.4471    1.1820   -0.3769 O   0  0  0  0  0  0  0  0  0  0  0  0
   -2.1987   -0.7432   -0.4163 H   0  0  0  0  0  0  0  0  0  0  0  0
    0.8440   -0.0073    0.5566 O   0  0  0  0  0  1  0  0  0  0  0  0
  1  2  1  0
  3  4  1  0
  3  5  2  0
  3  6  1  0
  4  7  1  0
M  RAD  2   1   2   7   2
M  END
