
     RDKit          3D

 22 20  0  0  0  0  0  0  0  0999 V2000
   -0.2104   -0.1874   -0.4975 C   0  0  0  0  0  0  0  0  0  0  0  0
   -1.5582   -0.5206    0.1179 C   0  0  0  0  0  0  0  0  0  0  0  0
    0.8596   -0.6943    0.4558 C   0  0  0  0  0  0  0  0  0  0  0  0
   -2.6172    0.4664   -0.2853 C   0  0  0  0  0  0  0  0  0  0  0  0
    1.9770    0.3043    0.4696 C   0  0  0  0  0  0  0  0  0  0  0  0
    3.2546    0.0833   -0.2730 C   0  0  0  0  0  3  0  0  0  0  0  0
   -0.1578    0.9304   -0.5272 H   0  0  0  0  0  0  0  0  0  0  0  0
   -0.0954   -0.6286   -1.5109 H   0  0  0  0  0  0  0  0  0  0  0  0
   -1.4327   -0.4299    1.2252 H   0  0  0  0  0  0  0  0  0  0  0  0
   -1.8325   -1.5692   -0.0759 H   0  0  0  0  0  0  0  0  0  0  0  0
    0.4442   -0.6729    1.4943 H   0  0  0  0  0  0  0  0  0  0  0  0
    1.1972   -1.7077    0.1975 H   0  0  0  0  0  0  0  0  0  0  0  0
   -3.2786   -0.0276   -1.0121 H   0  0  0  0  0  0  0  0  0  0  0  0
   -3.2260    0.8267    0.5788 H   0  0  0  0  0  0  0  0  0  0  0  0
   -2.1163    1.3678   -0.7154 H   0  0  0  0  0  0  0  0  0  0  0  0
    1.6445    1.4378    0.8125 O   0  0  0  0  0  0  0  0  0  0  0  0
    4.0650    0.6717    0.1891 H   0  0  0  0  0  0  0  0  0  0  0  0
    3.0830    0.3499   -1.3423 H   0  0  0  0  0  0  0  0  0  0  0  0
   -0.6413   -0.3736    0.6501 O   0  0  0  0  0  0  0  0  0  0  0  0
    0.6320   -0.3800    0.2830 O   0  0  0  0  0  0  0  0  0  0  0  0
   -1.0393    0.4067    0.1676 H   0  0  0  0  0  0  0  0  0  0  0  0
    1.0486    0.3468    0.8277 H   0  0  0  0  0  0  0  0  0  0  0  0
  1  3  1  0
  1  2  1  0
  1  7  1  0
  1  8  1  0
  2  9  1  0
  2  4  1  0
  2 10  1  0
  3 11  1  0
  3 12  1  0
  3  5  1  0
  4 15  1  0
  4 13  1  0
  4 14  1  0
  5  6  1  0
  5 16  2  0
  6 17  1  0
  6 18  1  0
 19 20  1  0
 19 21  1  0
 20 22  1  0
M  RAD  1   6   2
M  END
