
     RDKit          3D

 19 18  0  0  0  0  0  0  0  0999 V2000
    0.3490    0.0000    0.0000 H   0  0  0  0  0  0  0  0  0  0  0  0
   -0.3490    0.0000    0.0000 H   0  0  0  0  0  0  0  0  0  0  0  0
    0.6916    0.0943   -0.2848 C   0  0  0  0  0  0  0  0  0  0  0  0
   -0.1562   -1.0803    0.1965 C   0  0  0  0  0  0  0  0  0  0  0  0
   -1.4982   -0.5924   -0.2700 C   0  0  0  0  0  0  0  0  0  0  0  0
   -1.4867    0.8436    0.2311 C   0  0  0  0  0  0  0  0  0  0  0  0
    2.1355   -0.0476    0.0732 C   0  0  0  0  0  0  0  0  0  0  0  0
   -0.0216    1.2071    0.4341 C   0  0  0  0  0  3  0  0  0  0  0  0
    0.4898    0.2042   -1.3566 H   0  0  0  0  0  0  0  0  0  0  0  0
   -0.0851   -1.0421    1.3097 H   0  0  0  0  0  0  0  0  0  0  0  0
    0.1557   -2.0373   -0.2329 H   0  0  0  0  0  0  0  0  0  0  0  0
   -2.3527   -1.1700    0.0960 H   0  0  0  0  0  0  0  0  0  0  0  0
   -1.4784   -0.5487   -1.3749 H   0  0  0  0  0  0  0  0  0  0  0  0
   -1.9791    1.5386   -0.4741 H   0  0  0  0  0  0  0  0  0  0  0  0
   -2.0482    0.8252    1.1942 H   0  0  0  0  0  0  0  0  0  0  0  0
    2.6550   -0.5616   -0.7758 H   0  0  0  0  0  0  0  0  0  0  0  0
    2.1926   -0.7412    0.9322 H   0  0  0  0  0  0  0  0  0  0  0  0
    2.6147    0.9105    0.3344 H   0  0  0  0  0  0  0  0  0  0  0  0
    0.1713    2.1977   -0.0321 H   0  0  0  0  0  0  0  0  0  0  0  0
  1  2  1  0
  3  8  1  0
  3  9  1  0
  3  7  1  0
  3  4  1  0
  4 10  1  0
  4 11  1  0
  4  5  1  0
  5  6  1  0
  5 12  1  0
  5 13  1  0
  6  8  1  0
  6 14  1  0
  6 15  1  0
  7 16  1  0
  7 17  1  0
  7 18  1  0
  8 19  1  0
M  RAD  1   8   2
M  END
