
     RDKit          3D

  9  8  0  0  0  0  0  0  0  0999 V2000
    0.7091   -0.4909   -0.3184 C   0  0  0  0  0  0  0  0  0  0  0  0
   -1.6465    0.2334   -0.2719 C   0  0  0  0  0  0  0  0  0  0  0  0
   -0.3062    0.4373   -0.6152 O   0  0  0  0  0  0  0  0  0  0  0  0
    2.0110    0.2499   -0.3795 C   0  0  0  0  0  3  0  0  0  0  0  0
    0.6172   -0.8693    0.7311 H   0  0  0  0  0  0  0  0  0  0  0  0
    0.7895   -1.3020   -1.0603 H   0  0  0  0  0  0  0  0  0  0  0  0
   -1.9275   -0.6651    0.5715 O   0  0  0  0  0  0  0  0  0  0  0  0
   -2.2829    1.1093   -0.4157 H   0  0  0  0  0  0  0  0  0  0  0  0
    2.0363    1.2975    0.2634 O   0  0  0  0  0  0  0  0  0  0  0  0
  1  5  1  0
  1  6  1  0
  1  4  1  0
  1  3  1  0
  2  7  2  0
  2  8  1  0
  2  3  1  0
  4  9  2  0
M  RAD  1   4   2
M  END
