
     RDKit          3D

 20 18  0  0  0  0  0  0  0  0999 V2000
    0.1932   -0.0870   -1.1355 C   0  0  0  0  0  0  0  0  0  0  0  0
   -1.7670   -0.7928    0.4366 C   0  0  0  0  0  0  0  0  0  0  0  0
    2.1115    0.0159    0.6280 C   0  0  0  0  0  0  0  0  0  0  0  0
   -0.9396    0.2860   -0.2084 C   0  0  0  0  0  0  0  0  0  0  0  0
    1.3058   -0.7549   -0.3753 C   0  0  0  0  0  0  0  0  0  0  0  0
   -1.2166    1.5730    0.0481 C   0  0  0  0  0  0  0  0  0  0  0  0
    0.6047    0.8055   -1.6556 H   0  0  0  0  0  0  0  0  0  0  0  0
   -0.1992   -0.7694   -1.9207 H   0  0  0  0  0  0  0  0  0  0  0  0
   -2.8322   -0.6765    0.1447 H   0  0  0  0  0  0  0  0  0  0  0  0
   -1.6802   -0.7233    1.5416 H   0  0  0  0  0  0  0  0  0  0  0  0
   -1.4234   -1.7998    0.1185 H   0  0  0  0  0  0  0  0  0  0  0  0
    1.4500    0.3823    1.4405 H   0  0  0  0  0  0  0  0  0  0  0  0
    2.5943    0.8832    0.1314 H   0  0  0  0  0  0  0  0  0  0  0  0
    2.9007   -0.6265    1.0738 H   0  0  0  0  0  0  0  0  0  0  0  0
    1.5620   -1.9312   -0.5835 O   0  0  0  0  0  0  0  0  0  0  0  0
   -2.0303    1.8430    0.7149 H   0  0  0  0  0  0  0  0  0  0  0  0
   -0.6338    2.3725   -0.3989 H   0  0  0  0  0  0  0  0  0  0  0  0
   -0.1678    0.4480    0.0000 O   0  0  0  0  0  0  0  0  0  0  0  0
    0.9990   -0.1607    0.0000 O   0  0  0  0  0  1  0  0  0  0  0  0
   -0.8312   -0.2872    0.0000 H   0  0  0  0  0  0  0  0  0  0  0  0
  1  8  1  0
  1  7  1  0
  1  4  1  0
  1  5  1  0
  2 11  1  0
  2  9  1  0
  2 10  1  0
  2  4  1  0
  3 14  1  0
  3 12  1  0
  3 13  1  0
  3  5  1  0
  4  6  2  3
  5 15  2  0
  6 16  1  0
  6 17  1  0
 18 19  1  0
 18 20  1  0
M  RAD  1  19   2
M  END
