
     RDKit          3D

 20 18  0  0  0  0  0  0  0  0999 V2000
    0.2243    0.3123   -0.6669 C   0  0  0  0  0  0  0  0  0  0  0  0
   -1.8379   -1.0420    0.1842 C   0  0  0  0  0  0  0  0  0  0  0  0
    2.5995    0.0402    0.3707 C   0  0  0  0  0  0  0  0  0  0  0  0
   -1.0737    0.2204    0.0775 C   0  0  0  0  0  0  0  0  0  0  0  0
    1.2780   -0.5106   -0.0018 C   0  0  0  0  0  0  0  0  0  0  0  0
   -1.7984    1.3423    0.1908 C   0  0  0  0  0  0  0  0  0  0  0  0
    0.5176    1.3647   -0.7873 H   0  0  0  0  0  0  0  0  0  0  0  0
   -0.0010   -0.0554   -1.7007 H   0  0  0  0  0  0  0  0  0  0  0  0
   -2.6486   -1.0161   -0.5871 H   0  0  0  0  0  0  0  0  0  0  0  0
   -2.2242   -1.1781    1.2054 H   0  0  0  0  0  0  0  0  0  0  0  0
   -1.2393   -1.9420   -0.0515 H   0  0  0  0  0  0  0  0  0  0  0  0
    2.5323    0.9048    1.0715 H   0  0  0  0  0  0  0  0  0  0  0  0
    3.1997    0.2545   -0.5289 H   0  0  0  0  0  0  0  0  0  0  0  0
    3.1516   -0.7459    0.9438 H   0  0  0  0  0  0  0  0  0  0  0  0
    1.2020   -1.7191   -0.2176 O   0  0  0  0  0  0  0  0  0  0  0  0
   -1.9526    1.7937    1.1735 H   0  0  0  0  0  0  0  0  0  0  0  0
   -1.9293    1.9762   -0.6757 H   0  0  0  0  0  0  0  0  0  0  0  0
   -0.1481    0.4141   -0.0000 O   0  0  0  0  0  0  0  0  0  0  0  0
    1.0257   -0.1588    0.0000 O   0  0  0  0  0  1  0  0  0  0  0  0
   -0.8776   -0.2554   -0.0000 H   0  0  0  0  0  0  0  0  0  0  0  0
  1  8  1  0
  1  7  1  0
  1  4  1  0
  1  5  1  0
  2 11  1  0
  2  9  1  0
  2 10  1  0
  2  4  1  0
  3 14  1  0
  3 12  1  0
  3 13  1  0
  3  5  1  0
  4  6  2  3
  5 15  2  0
  6 16  1  0
  6 17  1  0
 18 19  1  0
 18 20  1  0
M  RAD  1  19   2
M  END
