
     RDKit          3D

 16 15  0  0  0  0  0  0  0  0999 V2000
    1.0524   -0.2091    0.1711 C   0  0  0  0  0  0  0  0  0  0  0  0
   -1.0605   -0.1287   -0.0551 C   0  0  0  0  0  0  0  0  0  0  0  0
    0.7126    1.1227    0.3070 C   0  0  0  0  0  0  0  0  0  0  0  0
   -0.6580    1.1749    0.1603 C   0  0  0  0  0  0  0  0  0  0  0  0
    2.4090   -0.7530    0.2520 C   0  0  0  0  0  0  0  0  0  0  0  0
   -2.4405   -0.5684   -0.2671 C   0  0  0  0  0  0  0  0  0  0  0  0
   -0.0222   -0.9329   -0.0438 O   0  0  0  0  0  0  0  0  0  0  0  0
    1.3798    1.9547    0.4904 H   0  0  0  0  0  0  0  0  0  0  0  0
   -1.2843    2.0562    0.2052 H   0  0  0  0  0  0  0  0  0  0  0  0
    2.6063   -1.9883    0.1128 O   0  0  0  0  0  0  0  0  0  0  0  0
   -2.6961   -1.7865   -0.4549 O   0  0  0  0  0  0  0  0  0  0  0  0
    3.2486   -0.0944    0.4321 H   0  0  0  0  0  0  0  0  0  0  0  0
   -3.2472    0.1528   -0.2633 H   0  0  0  0  0  0  0  0  0  0  0  0
   -0.1647    0.4491    0.0000 O   0  0  0  0  0  0  0  0  0  0  0  0
    0.9978   -0.1676    0.0000 O   0  0  0  0  0  1  0  0  0  0  0  0
   -0.8331   -0.2815    0.0000 H   0  0  0  0  0  0  0  0  0  0  0  0
  1  5  1  0
  1  3  2  0
  1  7  1  0
  2  4  2  0
  2  6  1  0
  2  7  1  0
  3  8  1  0
  3  4  1  0
  4  9  1  0
  5 12  1  0
  5 10  2  0
  6 13  1  0
  6 11  2  0
 14 15  1  0
 14 16  1  0
M  RAD  1  15   2
M  END
