
     RDKit          3D

 19 17  0  0  0  0  0  0  0  0999 V2000
   -0.7563    0.4518    0.3715 C   0  0  0  0  0  0  0  0  0  0  0  0
    0.3000   -0.6237    0.1966 C   0  0  0  0  0  0  0  0  0  0  0  0
    1.6406   -0.0578   -0.1765 C   0  0  0  0  0  0  0  0  0  0  0  0
   -2.0913   -0.0771   -0.0822 C   0  0  0  0  0  0  0  0  0  0  0  0
   -0.3547    1.5905   -0.2938 O   0  0  0  0  0  0  0  0  0  0  0  0
    2.6731   -0.6965    0.5277 O   0  0  0  0  0  0  0  0  0  0  0  0
   -0.8548    0.7085    1.4502 H   0  0  0  0  0  0  0  0  0  0  0  0
    0.3629   -1.1992    1.1553 H   0  0  0  0  0  0  0  0  0  0  0  0
   -0.0324   -1.3353   -0.5973 H   0  0  0  0  0  0  0  0  0  0  0  0
    1.8704   -0.2511   -1.2536 H   0  0  0  0  0  0  0  0  0  0  0  0
    1.7429    1.0250    0.0425 H   0  0  0  0  0  0  0  0  0  0  0  0
   -2.1033   -1.1674    0.1715 H   0  0  0  0  0  0  0  0  0  0  0  0
   -2.9481    0.3651    0.4757 H   0  0  0  0  0  0  0  0  0  0  0  0
   -2.2311    0.0424   -1.1860 H   0  0  0  0  0  0  0  0  0  0  0  0
    3.7839   -0.7279   -0.1959 O   0  0  0  0  0  1  0  0  0  0  0  0
   -1.0019    1.9527   -0.9332 H   0  0  0  0  0  0  0  0  0  0  0  0
   -0.1476    0.4248   -0.0000 O   0  0  0  0  0  0  0  0  0  0  0  0
    1.0189   -0.1627    0.0000 O   0  0  0  0  0  1  0  0  0  0  0  0
   -0.8713   -0.2621   -0.0000 H   0  0  0  0  0  0  0  0  0  0  0  0
  1  4  1  0
  1  2  1  0
  1  5  1  0
  1  7  1  0
  2  3  1  0
  2  9  1  0
  2  8  1  0
  3  6  1  0
  3 10  1  0
  3 11  1  0
  4 12  1  0
  4 13  1  0
  4 14  1  0
  5 16  1  0
  6 15  1  0
 17 19  1  0
 17 18  1  0
M  RAD  2  15   2  18   2
M  END
