
     RDKit          3D

 24 23  0  0  0  0  0  0  0  0999 V2000
   -2.4924    0.3133   -0.0251 C   0  0  0  0  0  0  0  0  0  0  0  0
    2.5066    0.2519   -0.1923 C   0  0  0  0  0  0  0  0  0  0  0  0
   -1.1967   -0.4270    0.1531 C   0  0  0  0  0  0  0  0  0  0  0  0
    1.2257   -0.4219    0.2077 C   0  0  0  0  0  0  0  0  0  0  0  0
   -3.5963   -0.7387   -0.0106 C   0  0  0  0  0  0  0  0  0  0  0  0
    3.6535   -0.7001    0.0235 C   0  0  0  0  0  0  0  0  0  0  0  0
    0.0106    0.3920   -0.2211 C   0  0  0  0  0  3  0  0  0  0  0  0
    0.0557    1.5986    0.4940 O   0  0  0  0  0  0  0  0  0  0  0  0
   -0.2015    2.5774   -0.3574 O   0  0  0  0  0  0  0  0  0  0  0  0
   -2.6690    1.0050    0.8367 H   0  0  0  0  0  0  0  0  0  0  0  0
   -2.5230    0.9298   -0.9502 H   0  0  0  0  0  0  0  0  0  0  0  0
    2.6510    1.1069    0.4963 H   0  0  0  0  0  0  0  0  0  0  0  0
    2.4244    0.5437   -1.2522 H   0  0  0  0  0  0  0  0  0  0  0  0
   -1.1980   -1.3359   -0.4634 H   0  0  0  0  0  0  0  0  0  0  0  0
   -1.0926   -0.7047    1.2111 H   0  0  0  0  0  0  0  0  0  0  0  0
    1.1185   -1.4500   -0.1656 H   0  0  0  0  0  0  0  0  0  0  0  0
    1.1913   -0.4402    1.3243 H   0  0  0  0  0  0  0  0  0  0  0  0
   -3.2492   -1.6294    0.5737 H   0  0  0  0  0  0  0  0  0  0  0  0
   -4.5205   -0.3734    0.4603 H   0  0  0  0  0  0  0  0  0  0  0  0
   -3.7840   -1.1433   -1.0381 H   0  0  0  0  0  0  0  0  0  0  0  0
    3.8311   -0.7559    1.1245 H   0  0  0  0  0  0  0  0  0  0  0  0
    3.3732   -1.7099   -0.3067 H   0  0  0  0  0  0  0  0  0  0  0  0
    4.6032   -0.3483   -0.4410 H   0  0  0  0  0  0  0  0  0  0  0  0
   -0.1213    3.4601    0.0858 H   0  0  0  0  0  0  0  0  0  0  0  0
  1  5  1  0
  1  3  1  0
  1 10  1  0
  1 11  1  0
  2  6  1  0
  2 12  1  0
  2 13  1  0
  2  4  1  0
  3  7  1  0
  3 14  1  0
  3 15  1  0
  4  7  1  0
  4 16  1  0
  4 17  1  0
  5 18  1  0
  5 19  1  0
  5 20  1  0
  6 21  1  0
  6 22  1  0
  6 23  1  0
  7  8  1  0
  8  9  1  0
  9 24  1  0
M  RAD  1   7   2
M  END
