
     RDKit          3D

 24 23  0  0  0  0  0  0  0  0999 V2000
   -2.5509    0.0509   -0.2907 C   0  0  0  0  0  0  0  0  0  0  0  0
    2.4646    0.5116   -0.0418 C   0  0  0  0  0  0  0  0  0  0  0  0
   -1.2507   -0.6222    0.1626 C   0  0  0  0  0  0  0  0  0  0  0  0
    1.2701   -0.3925    0.2813 C   0  0  0  0  0  0  0  0  0  0  0  0
   -3.7283   -0.9168   -0.2146 C   0  0  0  0  0  0  0  0  0  0  0  0
    3.7843   -0.2338    0.1363 C   0  0  0  0  0  0  0  0  0  0  0  0
   -0.0573    0.3326    0.0236 C   0  0  0  0  0  3  0  0  0  0  0  0
   -0.1971    1.4114    0.9073 O   0  0  0  0  0  0  0  0  0  0  0  0
   -0.3543    2.4667    0.1333 O   0  0  0  0  0  0  0  0  0  0  0  0
   -2.7687    0.9277    0.3570 H   0  0  0  0  0  0  0  0  0  0  0  0
   -2.4422    0.4052   -1.3391 H   0  0  0  0  0  0  0  0  0  0  0  0
    2.4627    1.3954    0.6321 H   0  0  0  0  0  0  0  0  0  0  0  0
    2.3904    0.8682   -1.0924 H   0  0  0  0  0  0  0  0  0  0  0  0
   -1.0752   -1.5200   -0.4700 H   0  0  0  0  0  0  0  0  0  0  0  0
   -1.3447   -0.9508    1.2213 H   0  0  0  0  0  0  0  0  0  0  0  0
    1.3221   -1.2965   -0.3645 H   0  0  0  0  0  0  0  0  0  0  0  0
    1.3188   -0.7164    1.3445 H   0  0  0  0  0  0  0  0  0  0  0  0
   -3.8696   -1.2710    0.8288 H   0  0  0  0  0  0  0  0  0  0  0  0
   -4.6552   -0.4010   -0.5431 H   0  0  0  0  0  0  0  0  0  0  0  0
   -3.5541   -1.7903   -0.8785 H   0  0  0  0  0  0  0  0  0  0  0  0
    3.8902   -0.5852    1.1848 H   0  0  0  0  0  0  0  0  0  0  0  0
    3.8309   -1.1061   -0.5499 H   0  0  0  0  0  0  0  0  0  0  0  0
    4.6300    0.4468   -0.0975 H   0  0  0  0  0  0  0  0  0  0  0  0
    0.4842    2.9858    0.2364 H   0  0  0  0  0  0  0  0  0  0  0  0
  1  5  1  0
  1  3  1  0
  1 10  1  0
  1 11  1  0
  2  6  1  0
  2 12  1  0
  2 13  1  0
  2  4  1  0
  3  7  1  0
  3 14  1  0
  3 15  1  0
  4  7  1  0
  4 16  1  0
  4 17  1  0
  5 18  1  0
  5 19  1  0
  5 20  1  0
  6 21  1  0
  6 22  1  0
  6 23  1  0
  7  8  1  0
  8  9  1  0
  9 24  1  0
M  RAD  1   7   2
M  END
