
     RDKit          3D

 19 17  0  0  0  0  0  0  0  0999 V2000
   -0.3951    0.2865   -0.1866 C   0  0  0  0  0  0  0  0  0  0  0  0
    0.9209   -0.5011   -0.0605 C   0  0  0  0  0  0  0  0  0  0  0  0
   -1.5147   -0.6190   -0.7071 C   0  0  0  0  0  0  0  0  0  0  0  0
   -0.7965    0.8685    1.1432 C   0  0  0  0  0  0  0  0  0  0  0  0
    2.0837    0.4086    0.3230 C   0  0  0  0  0  3  0  0  0  0  0  0
   -0.2524    1.1088   -0.9240 H   0  0  0  0  0  0  0  0  0  0  0  0
    1.1621   -0.9876   -1.0311 H   0  0  0  0  0  0  0  0  0  0  0  0
    0.8164   -1.2981    0.7082 H   0  0  0  0  0  0  0  0  0  0  0  0
   -1.2479   -1.0210   -1.7079 H   0  0  0  0  0  0  0  0  0  0  0  0
   -1.6876   -1.4703   -0.0134 H   0  0  0  0  0  0  0  0  0  0  0  0
   -2.4583   -0.0407   -0.8079 H   0  0  0  0  0  0  0  0  0  0  0  0
    3.0064   -0.1929    0.4628 H   0  0  0  0  0  0  0  0  0  0  0  0
    2.2599    1.1682   -0.4682 H   0  0  0  0  0  0  0  0  0  0  0  0
   -0.9089    2.0761    1.2815 O   0  0  0  0  0  0  0  0  0  0  0  0
   -0.9880    0.2140    1.9881 H   0  0  0  0  0  0  0  0  0  0  0  0
    0.6226   -0.2282    0.2952 O   0  0  0  0  0  0  0  0  0  0  0  0
   -0.3008    0.6606   -0.0077 O   0  0  0  0  0  0  0  0  0  0  0  0
    0.8332   -0.6772   -0.5632 H   0  0  0  0  0  0  0  0  0  0  0  0
   -1.1550    0.2448    0.2756 H   0  0  0  0  0  0  0  0  0  0  0  0
  1  2  1  0
  1  3  1  0
  1  4  1  0
  1  6  1  0
  2  7  1  0
  2  8  1  0
  2  5  1  0
  3  9  1  0
  3 11  1  0
  3 10  1  0
  4 15  1  0
  4 14  2  0
  5 12  1  0
  5 13  1  0
 16 17  1  0
 16 18  1  0
 17 19  1  0
M  RAD  1   5   2
M  END
