
     RDKit          3D

 14 13  0  0  0  0  0  0  0  0999 V2000
   -1.1834   -0.8773    0.0367 C   0  0  0  0  0  0  0  0  0  0  0  0
    1.7224   -0.6705    0.5092 C   0  0  0  0  0  0  0  0  0  0  0  0
   -0.4267    0.4084   -0.1961 C   0  0  0  0  0  0  0  0  0  0  0  0
    0.8981    0.4849    0.0244 C   0  0  0  0  0  0  0  0  0  0  0  0
   -1.1376    1.6133   -0.6745 C   0  0  0  0  0  0  0  0  0  0  0  0
    2.7819   -0.3555    0.6122 H   0  0  0  0  0  0  0  0  0  0  0  0
    1.3586   -1.0117    1.5010 H   0  0  0  0  0  0  0  0  0  0  0  0
    1.6734   -1.5082   -0.2176 H   0  0  0  0  0  0  0  0  0  0  0  0
   -0.7766   -1.6794   -0.6143 H   0  0  0  0  0  0  0  0  0  0  0  0
   -2.2637   -0.7707   -0.1919 H   0  0  0  0  0  0  0  0  0  0  0  0
   -1.0905   -1.1843    1.0997 H   0  0  0  0  0  0  0  0  0  0  0  0
    1.4166    1.4210   -0.1511 H   0  0  0  0  0  0  0  0  0  0  0  0
   -2.3773    1.5942   -0.8960 O   0  0  0  0  0  0  0  0  0  0  0  0
   -0.5952    2.5358   -0.8416 H   0  0  0  0  0  0  0  0  0  0  0  0
  1  9  1  0
  1 10  1  0
  1  3  1  0
  1 11  1  0
  2  4  1  0
  2  6  1  0
  2  7  1  0
  2  8  1  0
  3  4  2  3
  3  5  1  0
  4 12  1  0
  5 13  2  0
  5 14  1  0
M  END
