
     RDKit          3D

 17 15  0  0  0  0  0  0  0  0999 V2000
    1.1108   -0.5102    0.2118 C   0  0  0  0  0  0  0  0  0  0  0  0
   -1.3948   -0.7663    0.4453 C   0  0  0  0  0  0  0  0  0  0  0  0
   -0.4443    1.3200   -0.6116 C   0  0  0  0  0  0  0  0  0  0  0  0
   -0.2219    0.2171    0.4283 C   0  0  0  0  0  3  0  0  0  0  0  0
    2.1737    0.3825    0.3976 O   0  0  0  0  0  0  0  0  0  0  0  0
    1.1477   -0.9386   -0.8155 H   0  0  0  0  0  0  0  0  0  0  0  0
    1.2016   -1.3399    0.9481 H   0  0  0  0  0  0  0  0  0  0  0  0
   -1.2482   -1.5182    1.2490 H   0  0  0  0  0  0  0  0  0  0  0  0
   -2.3418   -0.2242    0.6512 H   0  0  0  0  0  0  0  0  0  0  0  0
   -1.4807   -1.2900   -0.5310 H   0  0  0  0  0  0  0  0  0  0  0  0
   -1.3970    1.8509   -0.4030 H   0  0  0  0  0  0  0  0  0  0  0  0
    0.3784    2.0637   -0.5634 H   0  0  0  0  0  0  0  0  0  0  0  0
   -0.4860    0.8903   -1.6356 H   0  0  0  0  0  0  0  0  0  0  0  0
    3.0024   -0.1370    0.2288 H   0  0  0  0  0  0  0  0  0  0  0  0
   -0.1510    0.4539    0.0000 O   0  0  0  0  0  0  0  0  0  0  0  0
    0.9923   -0.1979    0.0000 O   0  0  0  0  0  1  0  0  0  0  0  0
   -0.8413   -0.2560    0.0000 H   0  0  0  0  0  0  0  0  0  0  0  0
  1  4  1  0
  1  5  1  0
  1  7  1  0
  1  6  1  0
  2  4  1  0
  2  8  1  0
  2  9  1  0
  2 10  1  0
  3 13  1  0
  3  4  1  0
  3 11  1  0
  3 12  1  0
  5 14  1  0
 15 16  1  0
 15 17  1  0
M  RAD  2   4   2  16   2
M  END
