
     RDKit          3D

 15 15  0  0  0  0  0  0  0  0999 V2000
    0.5969   -1.0331    0.0641 C   0  0  0  0  0  0  0  0  0  0  0  0
   -0.7195   -0.7914   -0.6827 C   0  0  0  0  0  0  0  0  0  0  0  0
    1.3628    0.2802    0.2433 C   0  0  0  0  0  0  0  0  0  0  0  0
   -1.4753    0.3866   -0.0504 C   0  0  0  0  0  0  0  0  0  0  0  0
    0.4189    1.3407    0.8150 C   0  0  0  0  0  3  0  0  0  0  0  0
   -0.6728    1.5498   -0.0537 O   0  0  0  0  0  0  0  0  0  0  0  0
   -1.3475   -1.7072   -0.6421 H   0  0  0  0  0  0  0  0  0  0  0  0
   -0.5041   -0.5601   -1.7489 H   0  0  0  0  0  0  0  0  0  0  0  0
    0.3773   -1.4698    1.0635 H   0  0  0  0  0  0  0  0  0  0  0  0
    1.2215   -1.7584   -0.5002 H   0  0  0  0  0  0  0  0  0  0  0  0
    2.2142    0.1246    0.9394 H   0  0  0  0  0  0  0  0  0  0  0  0
    1.7605    0.6237   -0.7367 H   0  0  0  0  0  0  0  0  0  0  0  0
   -1.8107    0.1317    0.9821 H   0  0  0  0  0  0  0  0  0  0  0  0
   -2.3876    0.5862   -0.6510 H   0  0  0  0  0  0  0  0  0  0  0  0
    0.9653    2.2965    0.9582 H   0  0  0  0  0  0  0  0  0  0  0  0
  1  3  1  0
  1  2  1  0
  1  9  1  0
  1 10  1  0
  2  7  1  0
  2  4  1  0
  2  8  1  0
  3  5  1  0
  3 11  1  0
  3 12  1  0
  4 14  1  0
  4 13  1  0
  4  6  1  0
  5  6  1  0
  5 15  1  0
M  RAD  1   5   2
M  END
