
     RDKit          3D

 22 20  0  0  0  0  0  0  0  0999 V2000
    1.6431    0.4110    0.5909 C   0  0  0  0  0  0  0  0  0  0  0  0
    2.3009   -0.2294   -0.6028 C   0  0  0  0  0  0  0  0  0  0  0  0
   -1.5917    0.0947   -1.1599 C   0  0  0  0  0  0  0  0  0  0  0  0
   -1.6944   -0.6790    1.1522 C   0  0  0  0  0  0  0  0  0  0  0  0
   -0.7523   -0.4481   -0.0213 C   0  0  0  0  0  3  0  0  0  0  0  0
    0.1941    0.6271    0.4118 C   0  0  0  0  0  0  0  0  0  0  0  0
    2.1212    1.3991    0.7513 H   0  0  0  0  0  0  0  0  0  0  0  0
    1.8857   -0.2347    1.4646 H   0  0  0  0  0  0  0  0  0  0  0  0
    3.3782   -0.3546   -0.3240 H   0  0  0  0  0  0  0  0  0  0  0  0
    2.2606    0.3835   -1.5157 H   0  0  0  0  0  0  0  0  0  0  0  0
    1.8964   -1.2465   -0.7237 H   0  0  0  0  0  0  0  0  0  0  0  0
   -1.5435   -0.5337   -2.0682 H   0  0  0  0  0  0  0  0  0  0  0  0
   -2.6669    0.1822   -0.8907 H   0  0  0  0  0  0  0  0  0  0  0  0
   -1.2472    1.0968   -1.4488 H   0  0  0  0  0  0  0  0  0  0  0  0
   -1.8270    0.2825    1.6680 H   0  0  0  0  0  0  0  0  0  0  0  0
   -2.6789   -0.9768    0.7134 H   0  0  0  0  0  0  0  0  0  0  0  0
   -1.3576   -1.5006    1.7995 H   0  0  0  0  0  0  0  0  0  0  0  0
   -0.3207    1.7266    0.6067 O   0  0  0  0  0  0  0  0  0  0  0  0
   -0.5597    0.3591    0.2302 O   0  0  0  0  0  0  0  0  0  0  0  0
    0.5523   -0.3195    0.2938 O   0  0  0  0  0  0  0  0  0  0  0  0
   -1.2283   -0.1730   -0.2492 H   0  0  0  0  0  0  0  0  0  0  0  0
    1.2357    0.1334   -0.2748 H   0  0  0  0  0  0  0  0  0  0  0  0
  1  7  1  0
  1  2  1  0
  1  8  1  0
  1  6  1  0
  2  9  1  0
  2 10  1  0
  2 11  1  0
  3 13  1  0
  3 12  1  0
  3 14  1  0
  3  5  1  0
  4 17  1  0
  4 16  1  0
  4 15  1  0
  4  5  1  0
  5  6  1  0
  6 18  2  0
 19 20  1  0
 19 21  1  0
 20 22  1  0
M  RAD  1   5   2
M  END
