
     RDKit          3D

 17 16  0  0  0  0  0  0  0  0999 V2000
    0.0066    0.0001   -0.0011 C   0  0  0  0  0  0  0  0  0  0  0  0
    1.5054   -0.2287   -0.2774 C   0  0  0  0  0  0  0  0  0  0  0  0
   -0.8079   -0.4639   -1.2254 C   0  0  0  0  0  0  0  0  0  0  0  0
   -0.4087   -0.8216    1.2359 C   0  0  0  0  0  0  0  0  0  0  0  0
   -0.2337    1.5060    0.2568 C   0  0  0  0  0  0  0  0  0  0  0  0
   -1.5829    1.7646    0.5132 O   0  0  0  0  0  1  0  0  0  0  0  0
    1.8327    0.3499   -1.1683 H   0  0  0  0  0  0  0  0  0  0  0  0
    2.1182    0.0941    0.5920 H   0  0  0  0  0  0  0  0  0  0  0  0
    1.7107   -1.3046   -0.4671 H   0  0  0  0  0  0  0  0  0  0  0  0
   -0.5306    0.1255   -2.1260 H   0  0  0  0  0  0  0  0  0  0  0  0
   -1.8974   -0.3378   -1.0472 H   0  0  0  0  0  0  0  0  0  0  0  0
   -0.6161   -1.5378   -1.4388 H   0  0  0  0  0  0  0  0  0  0  0  0
   -1.4930   -0.7002    1.4462 H   0  0  0  0  0  0  0  0  0  0  0  0
   -0.2088   -1.9028    1.0725 H   0  0  0  0  0  0  0  0  0  0  0  0
    0.1601   -0.4935    2.1326 H   0  0  0  0  0  0  0  0  0  0  0  0
    0.3650    1.8478    1.1286 H   0  0  0  0  0  0  0  0  0  0  0  0
    0.0803    2.1029   -0.6266 H   0  0  0  0  0  0  0  0  0  0  0  0
  1  2  1  0
  1  4  1  0
  1  3  1  0
  1  5  1  0
  2  7  1  0
  2  8  1  0
  2  9  1  0
  3 11  1  0
  3 12  1  0
  3 10  1  0
  4 13  1  0
  4 14  1  0
  4 15  1  0
  5  6  1  0
  5 16  1  0
  5 17  1  0
M  RAD  1   6   2
M  END
