
     RDKit          3D

 16 16  0  0  0  0  0  0  0  0999 V2000
    0.3895    0.5870    0.5933 C   0  0  0  0  0  0  0  0  0  0  0  0
   -0.1596   -0.5325    1.2049 C   0  0  0  0  0  0  0  0  0  0  0  0
   -0.3771    1.2604   -0.3468 C   0  0  0  0  0  0  0  0  0  0  0  0
    1.8865    0.6510    0.5733 C   0  0  0  0  0  3  0  0  0  0  0  0
   -1.3102   -1.1509    0.7256 C   0  0  0  0  0  0  0  0  0  0  0  0
   -1.9840   -0.5575   -0.3348 C   0  0  0  0  0  0  0  0  0  0  0  0
   -1.5579    0.6851   -0.7885 C   0  0  0  0  0  0  0  0  0  0  0  0
    2.3480   -0.3037   -0.4887 C   0  0  0  0  0  0  0  0  0  0  0  0
    2.2644    1.6638    0.3903 H   0  0  0  0  0  0  0  0  0  0  0  0
    0.2137   -0.8082    2.1722 H   0  0  0  0  0  0  0  0  0  0  0  0
   -1.5525   -2.1739    1.0156 H   0  0  0  0  0  0  0  0  0  0  0  0
   -2.6115   -1.1317   -1.0156 H   0  0  0  0  0  0  0  0  0  0  0  0
   -2.3258    1.3634   -1.1674 H   0  0  0  0  0  0  0  0  0  0  0  0
    0.0973    2.0135   -0.9699 H   0  0  0  0  0  0  0  0  0  0  0  0
    2.7336   -1.3777   -0.0720 O   0  0  0  0  0  0  0  0  0  0  0  0
    1.9457   -0.1881   -1.4916 H   0  0  0  0  0  0  0  0  0  0  0  0
  1  2  2  0
  1  3  1  0
  1  4  1  0
  2  5  1  0
  2 10  1  0
  3 14  1  0
  3  7  2  0
  4  9  1  0
  4  8  1  0
  5 11  1  0
  5  6  2  0
  6  7  1  0
  6 12  1  0
  7 13  1  0
  8 16  1  0
  8 15  2  0
M  RAD  1   4   2
M  END
