
     RDKit          3D

 25 23  0  0  0  0  0  0  0  0999 V2000
   -0.8729   -0.2699   -0.0141 C   0  0  0  0  0  0  0  0  0  0  0  0
    1.7419   -0.2470   -0.4357 C   0  0  0  0  0  0  0  0  0  0  0  0
   -1.0619    1.2317   -0.2975 C   0  0  0  0  0  0  0  0  0  0  0  0
   -1.9017   -0.7111    1.0502 C   0  0  0  0  0  0  0  0  0  0  0  0
    2.6046    0.8763    0.1308 C   0  0  0  0  0  0  0  0  0  0  0  0
    0.5568   -0.5229    0.4590 C   0  0  0  0  0  0  0  0  0  0  0  0
   -1.1218   -1.0645   -1.3035 C   0  0  0  0  0  3  0  0  0  0  0  0
    2.3520   -1.1713   -0.5265 H   0  0  0  0  0  0  0  0  0  0  0  0
    1.4103    0.0372   -1.4567 H   0  0  0  0  0  0  0  0  0  0  0  0
   -2.1094    1.4450   -0.6023 H   0  0  0  0  0  0  0  0  0  0  0  0
   -0.3941    1.5726   -1.1170 H   0  0  0  0  0  0  0  0  0  0  0  0
   -0.8342    1.8297    0.6115 H   0  0  0  0  0  0  0  0  0  0  0  0
   -2.9391   -0.5348    0.6918 H   0  0  0  0  0  0  0  0  0  0  0  0
   -1.7930   -1.7944    1.2747 H   0  0  0  0  0  0  0  0  0  0  0  0
   -1.7597   -0.1396    1.9931 H   0  0  0  0  0  0  0  0  0  0  0  0
    3.4598    1.0679   -0.5510 H   0  0  0  0  0  0  0  0  0  0  0  0
    3.0036    0.5938    1.1283 H   0  0  0  0  0  0  0  0  0  0  0  0
    2.0088    1.8093    0.2248 H   0  0  0  0  0  0  0  0  0  0  0  0
    0.7663   -0.9672    1.5798 O   0  0  0  0  0  0  0  0  0  0  0  0
   -0.9712   -2.1536   -1.1399 H   0  0  0  0  0  0  0  0  0  0  0  0
   -2.1451   -0.8871   -1.6998 H   0  0  0  0  0  0  0  0  0  0  0  0
   -0.5267    0.4780    0.1451 O   0  0  0  0  0  0  0  0  0  0  0  0
    0.5341   -0.2516    0.4223 O   0  0  0  0  0  0  0  0  0  0  0  0
   -1.1757   -0.1587   -0.2503 H   0  0  0  0  0  0  0  0  0  0  0  0
    1.1683   -0.0676   -0.3171 H   0  0  0  0  0  0  0  0  0  0  0  0
  1  3  1  0
  1  4  1  0
  1  6  1  0
  1  7  1  0
  2  9  1  0
  2  6  1  0
  2  8  1  0
  2  5  1  0
  3 11  1  0
  3 12  1  0
  3 10  1  0
  4 13  1  0
  4 14  1  0
  4 15  1  0
  5 17  1  0
  5 18  1  0
  5 16  1  0
  6 19  2  0
  7 20  1  0
  7 21  1  0
 22 23  1  0
 22 24  1  0
 23 25  1  0
M  RAD  1   7   2
M  END
