
     RDKit          3D

 25 23  0  0  0  0  0  0  0  0999 V2000
   -0.8725   -0.0517   -0.0203 C   0  0  0  0  0  0  0  0  0  0  0  0
    1.6730   -0.5345   -0.4674 C   0  0  0  0  0  0  0  0  0  0  0  0
   -1.2952    1.4071    0.1140 C   0  0  0  0  0  0  0  0  0  0  0  0
   -1.7608   -0.8307    0.9430 C   0  0  0  0  0  0  0  0  0  0  0  0
    2.7594    0.4761   -0.1184 C   0  0  0  0  0  0  0  0  0  0  0  0
    0.5188   -0.2547    0.4027 C   0  0  0  0  0  0  0  0  0  0  0  0
   -1.1530   -0.4544   -1.4399 C   0  0  0  0  0  3  0  0  0  0  0  0
    2.0519   -1.5507   -0.1897 H   0  0  0  0  0  0  0  0  0  0  0  0
    1.4450   -0.5590   -1.5409 H   0  0  0  0  0  0  0  0  0  0  0  0
   -2.1370    1.6310   -0.5658 H   0  0  0  0  0  0  0  0  0  0  0  0
   -0.4706    2.0903   -0.1820 H   0  0  0  0  0  0  0  0  0  0  0  0
   -1.5835    1.6408    1.1633 H   0  0  0  0  0  0  0  0  0  0  0  0
   -2.5258   -1.4310    0.3903 H   0  0  0  0  0  0  0  0  0  0  0  0
   -1.1636   -1.5818    1.5151 H   0  0  0  0  0  0  0  0  0  0  0  0
   -2.2191   -0.1660    1.6970 H   0  0  0  0  0  0  0  0  0  0  0  0
    3.3311    0.7943   -1.0184 H   0  0  0  0  0  0  0  0  0  0  0  0
    3.5068   -0.0074    0.5598 H   0  0  0  0  0  0  0  0  0  0  0  0
    2.3170    1.3548    0.4164 H   0  0  0  0  0  0  0  0  0  0  0  0
    0.7445   -0.1930    1.6094 O   0  0  0  0  0  0  0  0  0  0  0  0
   -0.9187   -1.5044   -1.6692 H   0  0  0  0  0  0  0  0  0  0  0  0
   -2.2476   -0.2752   -1.5991 H   0  0  0  0  0  0  0  0  0  0  0  0
   -0.5705    0.3919    0.1877 O   0  0  0  0  0  0  0  0  0  0  0  0
    0.5533   -0.2664    0.3228 O   0  0  0  0  0  0  0  0  0  0  0  0
   -1.2503   -0.2105   -0.2286 H   0  0  0  0  0  0  0  0  0  0  0  0
    1.2676    0.0850   -0.2819 H   0  0  0  0  0  0  0  0  0  0  0  0
  1  3  1  0
  1  4  1  0
  1  6  1  0
  1  7  1  0
  2  9  1  0
  2  6  1  0
  2  8  1  0
  2  5  1  0
  3 11  1  0
  3 12  1  0
  3 10  1  0
  4 13  1  0
  4 14  1  0
  4 15  1  0
  5 17  1  0
  5 18  1  0
  5 16  1  0
  6 19  2  0
  7 20  1  0
  7 21  1  0
 22 23  1  0
 22 24  1  0
 23 25  1  0
M  RAD  1   7   2
M  END
