
     RDKit          3D

 18 17  0  0  0  0  0  0  0  0999 V2000
   -0.5803    0.3246    0.1749 C   0  0  0  0  0  0  0  0  0  0  0  0
    1.7333   -0.6040   -0.2089 C   0  0  0  0  0  0  0  0  0  0  0  0
   -1.6075    1.2060   -0.4784 C   0  0  0  0  0  0  0  0  0  0  0  0
   -1.2797   -0.8889    0.7773 C   0  0  0  0  0  0  0  0  0  0  0  0
    0.4104   -0.2269   -0.8079 C   0  0  0  0  0  0  0  0  0  0  0  0
    2.0768    0.3963    0.8801 C   0  0  0  0  0  3  0  0  0  0  0  0
   -0.0767    0.8376    1.0048 H   0  0  0  0  0  0  0  0  0  0  0  0
    1.6199   -1.5851    0.3138 H   0  0  0  0  0  0  0  0  0  0  0  0
    2.5304   -0.6840   -0.9767 H   0  0  0  0  0  0  0  0  0  0  0  0
   -1.5973    2.1999    0.0374 H   0  0  0  0  0  0  0  0  0  0  0  0
   -1.4181    1.3800   -1.5492 H   0  0  0  0  0  0  0  0  0  0  0  0
   -2.6462    0.8227   -0.3096 H   0  0  0  0  0  0  0  0  0  0  0  0
   -1.8740   -0.4858    1.6351 H   0  0  0  0  0  0  0  0  0  0  0  0
   -1.9259   -1.3418    0.0006 H   0  0  0  0  0  0  0  0  0  0  0  0
   -0.4917   -1.5908    1.1367 H   0  0  0  0  0  0  0  0  0  0  0  0
   -0.0555   -1.0527   -1.5920 O   0  0  0  0  0  0  0  0  0  0  0  0
    2.4296    1.3337    0.4304 H   0  0  0  0  0  0  0  0  0  0  0  0
    2.7525   -0.0408    1.6298 H   0  0  0  0  0  0  0  0  0  0  0  0
  1  3  1  0
  1  4  1  0
  1  5  1  0
  1  7  1  0
  2  9  1  0
  2  6  1  0
  2  5  1  0
  2  8  1  0
  3 11  1  0
  3 12  1  0
  3 10  1  0
  4 13  1  0
  4 14  1  0
  4 15  1  0
  5 16  2  0
  6 17  1  0
  6 18  1  0
M  RAD  1   6   2
M  END
