
     RDKit          3D

  8  7  0  0  0  0  0  0  0  0999 V2000
   -0.9853   -0.1969    0.1822 C   0  0  0  0  0  0  0  0  0  0  0  0
    1.1752    0.2984   -0.0680 C   0  0  0  0  0  3  0  0  0  0  0  0
    0.0877   -0.2410   -0.7240 O   0  0  0  0  0  0  0  0  0  0  0  0
   -0.7665    0.4219    1.0628 H   0  0  0  0  0  0  0  0  0  0  0  0
   -1.1394   -1.2603    0.4741 H   0  0  0  0  0  0  0  0  0  0  0  0
   -1.8633    0.2535   -0.3178 H   0  0  0  0  0  0  0  0  0  0  0  0
    1.5201    1.2068   -0.5748 H   0  0  0  0  0  0  0  0  0  0  0  0
    1.9715   -0.4824   -0.0345 H   0  0  0  0  0  0  0  0  0  0  0  0
  1  5  1  0
  1  6  1  0
  1  3  1  0
  1  4  1  0
  2  8  1  0
  2  7  1  0
  2  3  1  0
M  RAD  1   2   2
M  END
