
     RDKit          3D

 28 26  0  0  0  0  0  0  0  0999 V2000
    0.3491    0.0000    0.0000 H   0  0  0  0  0  0  0  0  0  0  0  0
   -0.3491    0.0000    0.0000 H   0  0  0  0  0  0  0  0  0  0  0  0
   -0.3093   -0.8197    0.2267 C   0  0  0  0  0  0  0  0  0  0  0  0
   -1.7963   -0.6643    0.3985 C   0  0  0  0  0  0  0  0  0  0  0  0
   -2.1854    0.6174    1.0794 C   0  0  0  0  0  0  0  0  0  0  0  0
   -0.1181   -1.8476   -0.8811 C   0  0  0  0  0  0  0  0  0  0  0  0
    2.4217    1.5755   -0.8790 C   0  0  0  0  0  0  0  0  0  0  0  0
    2.5750   -0.5127    0.5434 C   0  0  0  0  0  0  0  0  0  0  0  0
    1.6964    0.4614   -0.1822 C   0  0  0  0  0  0  0  0  0  0  0  0
    0.3750    0.4580   -0.0648 C   0  0  0  0  0  0  0  0  0  0  0  0
   -3.3952    1.1477    0.3325 C   0  0  0  0  0  3  0  0  0  0  0  0
    0.0819   -1.1910    1.2035 H   0  0  0  0  0  0  0  0  0  0  0  0
   -2.2840   -0.8108   -0.5879 H   0  0  0  0  0  0  0  0  0  0  0  0
   -2.1451   -1.5235    1.0258 H   0  0  0  0  0  0  0  0  0  0  0  0
   -1.3647    1.3424    1.1518 H   0  0  0  0  0  0  0  0  0  0  0  0
   -2.5377    0.4068    2.1186 H   0  0  0  0  0  0  0  0  0  0  0  0
   -0.7596   -1.5343   -1.7257 H   0  0  0  0  0  0  0  0  0  0  0  0
    0.9238   -1.9222   -1.2184 H   0  0  0  0  0  0  0  0  0  0  0  0
   -0.5306   -2.8011   -0.4822 H   0  0  0  0  0  0  0  0  0  0  0  0
    1.7653    2.1610   -1.5367 H   0  0  0  0  0  0  0  0  0  0  0  0
    2.8664    2.1933   -0.0577 H   0  0  0  0  0  0  0  0  0  0  0  0
    3.3065    1.1689   -1.4313 H   0  0  0  0  0  0  0  0  0  0  0  0
    2.9757   -1.2951   -0.1510 H   0  0  0  0  0  0  0  0  0  0  0  0
    2.0895   -0.9581    1.4211 H   0  0  0  0  0  0  0  0  0  0  0  0
    3.4881    0.0100    0.9274 H   0  0  0  0  0  0  0  0  0  0  0  0
   -0.1697    1.1966   -0.6402 H   0  0  0  0  0  0  0  0  0  0  0  0
   -3.3288    0.9598   -0.7498 H   0  0  0  0  0  0  0  0  0  0  0  0
   -3.6407    2.1818    0.6042 H   0  0  0  0  0  0  0  0  0  0  0  0
  1  2  1  0
  3 12  1  0
  3 10  1  0
  3  4  1  0
  3  6  1  0
  4  5  1  0
  4 14  1  0
  4 13  1  0
  5 16  1  0
  5 11  1  0
  5 15  1  0
  6 17  1  0
  6 18  1  0
  6 19  1  0
  7 20  1  0
  7  9  1  0
  7 22  1  0
  7 21  1  0
  8  9  1  0
  8 23  1  0
  8 24  1  0
  8 25  1  0
  9 10  2  3
 10 26  1  0
 11 28  1  0
 11 27  1  0
M  RAD  1  11   2
M  END
