
     RDKit          3D

 19 18  0  0  0  0  0  0  0  0999 V2000
   -0.0376   -1.2843   -0.5041 C   0  0  0  0  0  0  0  0  0  0  0  0
    1.2443   -0.7337    0.1347 C   0  0  0  0  0  0  0  0  0  0  0  0
   -1.2837   -0.6614    0.1390 C   0  0  0  0  0  0  0  0  0  0  0  0
    1.2876    0.7962    0.0508 C   0  0  0  0  0  0  0  0  0  0  0  0
   -1.2399    0.8685    0.0551 C   0  0  0  0  0  0  0  0  0  0  0  0
    0.0414    1.4070    0.6970 C   0  0  0  0  0  3  0  0  0  0  0  0
    2.1273   -1.1555   -0.3919 H   0  0  0  0  0  0  0  0  0  0  0  0
    1.2961   -1.0502    1.1998 H   0  0  0  0  0  0  0  0  0  0  0  0
   -0.0689   -2.3872   -0.3723 H   0  0  0  0  0  0  0  0  0  0  0  0
   -0.0333   -1.0693   -1.5954 H   0  0  0  0  0  0  0  0  0  0  0  0
   -2.1912   -1.0320   -0.3845 H   0  0  0  0  0  0  0  0  0  0  0  0
   -1.3499   -0.9746    1.2043 H   0  0  0  0  0  0  0  0  0  0  0  0
    1.3552    1.1148   -1.0127 H   0  0  0  0  0  0  0  0  0  0  0  0
    2.1898    1.1667    0.5823 H   0  0  0  0  0  0  0  0  0  0  0  0
   -2.1175    1.2898    0.5897 H   0  0  0  0  0  0  0  0  0  0  0  0
   -1.2927    1.1905   -1.0082 H   0  0  0  0  0  0  0  0  0  0  0  0
    0.0730    2.5147    0.6164 H   0  0  0  0  0  0  0  0  0  0  0  0
    0.6580    0.0000    0.0000 O   0  0  0  0  0  1  0  0  0  0  0  0
   -0.6580    0.0000    0.0000 O   0  0  0  0  0  1  0  0  0  0  0  0
  1  2  1  0
  1 10  1  0
  1  3  1  0
  1  9  1  0
  2  8  1  0
  2  4  1  0
  2  7  1  0
  3 12  1  0
  3 11  1  0
  3  5  1  0
  4  6  1  0
  4 13  1  0
  4 14  1  0
  5  6  1  0
  5 15  1  0
  5 16  1  0
  6 17  1  0
 18 19  1  0
M  RAD  3   6   2  18   2  19   2
M  END
