
     RDKit          3D

 17 15  0  0  0  0  0  0  0  0999 V2000
   -0.5175    0.2173    0.2925 C   0  0  0  0  0  0  0  0  0  0  0  0
    0.6671   -0.4836   -0.3908 C   0  0  0  0  0  0  0  0  0  0  0  0
   -1.8260   -0.5099   -0.0280 C   0  0  0  0  0  0  0  0  0  0  0  0
    2.0015    0.1499   -0.0014 C   0  0  0  0  0  0  0  0  0  0  0  0
   -0.5976    1.5471   -0.1520 O   0  0  0  0  0  0  0  0  0  0  0  0
   -0.3595    0.1909    1.3965 H   0  0  0  0  0  0  0  0  0  0  0  0
    0.6883   -1.5552   -0.0939 H   0  0  0  0  0  0  0  0  0  0  0  0
    0.5500   -0.4325   -1.4957 H   0  0  0  0  0  0  0  0  0  0  0  0
    2.0389    1.2109   -0.3275 H   0  0  0  0  0  0  0  0  0  0  0  0
    2.1472    0.0983    1.0987 H   0  0  0  0  0  0  0  0  0  0  0  0
    2.8308   -0.3996   -0.4946 H   0  0  0  0  0  0  0  0  0  0  0  0
   -2.0153   -0.5043   -1.1229 H   0  0  0  0  0  0  0  0  0  0  0  0
   -2.6734   -0.0053    0.4829 H   0  0  0  0  0  0  0  0  0  0  0  0
   -1.7802   -1.5612    0.3280 H   0  0  0  0  0  0  0  0  0  0  0  0
   -1.1542    2.0373    0.5082 H   0  0  0  0  0  0  0  0  0  0  0  0
    0.6580    0.0000    0.0000 O   0  0  0  0  0  1  0  0  0  0  0  0
   -0.6580    0.0000    0.0000 O   0  0  0  0  0  1  0  0  0  0  0  0
  1  6  1  0
  1  2  1  0
  1  5  1  0
  1  3  1  0
  2  4  1  0
  2  7  1  0
  2  8  1  0
  3 12  1  0
  3 14  1  0
  3 13  1  0
  4  9  1  0
  4 10  1  0
  4 11  1  0
  5 15  1  0
 16 17  1  0
M  RAD  2  16   2  17   2
M  END
