
     RDKit          3D

 14 12  0  0  0  0  0  0  0  0999 V2000
    0.5327    0.3916    0.1887 C   0  0  0  0  0  0  0  0  0  0  0  0
   -0.6743   -0.3330   -0.3366 C   0  0  0  0  0  0  0  0  0  0  0  0
    1.8145   -0.2620   -0.3075 C   0  0  0  0  0  3  0  0  0  0  0  0
   -1.9068    0.0737   -0.0235 C   0  0  0  0  0  0  0  0  0  0  0  0
    0.5088    1.4462   -0.1603 H   0  0  0  0  0  0  0  0  0  0  0  0
    0.5222    0.3803    1.3002 H   0  0  0  0  0  0  0  0  0  0  0  0
   -0.5556   -1.2003   -0.9811 H   0  0  0  0  0  0  0  0  0  0  0  0
    2.6945    0.3251    0.0297 H   0  0  0  0  0  0  0  0  0  0  0  0
    1.8976   -1.2987    0.0835 H   0  0  0  0  0  0  0  0  0  0  0  0
   -2.7695   -0.4590   -0.4103 H   0  0  0  0  0  0  0  0  0  0  0  0
   -2.0641    0.9362    0.6174 H   0  0  0  0  0  0  0  0  0  0  0  0
   -0.1594    0.4510    0.0000 O   0  0  0  0  0  0  0  0  0  0  0  0
    0.9958   -0.1793    0.0000 O   0  0  0  0  0  1  0  0  0  0  0  0
   -0.8364   -0.2718    0.0000 H   0  0  0  0  0  0  0  0  0  0  0  0
  1  3  1  0
  1  2  1  0
  1  5  1  0
  1  6  1  0
  2  4  2  3
  2  7  1  0
  3  8  1  0
  3  9  1  0
  4 11  1  0
  4 10  1  0
 12 13  1  0
 12 14  1  0
M  RAD  2   3   2  13   2
M  END
