
     RDKit          3D

 20 19  0  0  0  0  0  0  0  0999 V2000
    0.4902    0.0000    0.0000 O   0  0  0  0  0  1  0  0  0  0  0  0
   -0.4902    0.0000    0.0000 H   0  0  0  0  0  0  0  0  0  0  0  0
   -0.7272    0.2500   -0.1059 C   0  0  0  0  0  0  0  0  0  0  0  0
    0.0486   -0.0615    1.1723 C   0  0  0  0  0  0  0  0  0  0  0  0
    0.2249   -0.3108   -1.1323 C   0  0  0  0  0  0  0  0  0  0  0  0
    1.4016    0.5383    0.8067 C   0  0  0  0  0  0  0  0  0  0  0  0
    1.5458    0.2965   -0.6908 C   0  0  0  0  0  0  0  0  0  0  0  0
   -2.0399   -0.4713   -0.0722 C   0  0  0  0  0  0  0  0  0  0  0  0
   -0.8063    1.3428   -0.1640 H   0  0  0  0  0  0  0  0  0  0  0  0
    1.3274    1.6373    1.0009 H   0  0  0  0  0  0  0  0  0  0  0  0
    2.2308    0.0741    1.3770 H   0  0  0  0  0  0  0  0  0  0  0  0
    1.6603    1.2452   -1.2307 H   0  0  0  0  0  0  0  0  0  0  0  0
    2.3639   -0.4170   -0.8875 H   0  0  0  0  0  0  0  0  0  0  0  0
    0.1037   -1.1608    1.2514 H   0  0  0  0  0  0  0  0  0  0  0  0
   -0.4151    0.4280    2.0411 H   0  0  0  0  0  0  0  0  0  0  0  0
   -0.0449   -0.0660   -2.1666 H   0  0  0  0  0  0  0  0  0  0  0  0
    0.2353   -1.4215   -1.0178 H   0  0  0  0  0  0  0  0  0  0  0  0
   -1.8475   -1.5488    0.0251 H   0  0  0  0  0  0  0  0  0  0  0  0
   -2.6283   -0.3065   -0.9799 H   0  0  0  0  0  0  0  0  0  0  0  0
   -2.6330   -0.0479    0.7734 H   0  0  0  0  0  0  0  0  0  0  0  0
  1  2  1  0
  3  8  1  0
  3  4  1  0
  3  5  1  0
  3  9  1  0
  4 15  1  0
  4 14  1  0
  4  6  1  0
  5 16  1  0
  5 17  1  0
  5  7  1  0
  6 11  1  0
  6 10  1  0
  6  7  1  0
  7 12  1  0
  7 13  1  0
  8 20  1  0
  8 18  1  0
  8 19  1  0
M  RAD  1   1   2
M  END
