
     RDKit          3D

 18 17  0  0  0  0  0  0  0  0999 V2000
   -0.3246   -0.2698   -0.0586 C   0  0  0  0  0  0  0  0  0  0  0  0
   -1.5752    0.4293    0.4866 C   0  0  0  0  0  0  0  0  0  0  0  0
    0.9398    0.2413    0.6409 C   0  0  0  0  0  0  0  0  0  0  0  0
   -2.8366   -0.0780   -0.2060 C   0  0  0  0  0  0  0  0  0  0  0  0
    2.1655   -0.4325    0.0919 C   0  0  0  0  0  0  0  0  0  0  0  0
    3.2045    0.3641   -0.6285 C   0  0  0  0  0  3  0  0  0  0  0  0
   -1.6641    0.2406    1.5788 H   0  0  0  0  0  0  0  0  0  0  0  0
   -1.4927    1.5262    0.3243 H   0  0  0  0  0  0  0  0  0  0  0  0
   -0.2419   -0.0779   -1.1515 H   0  0  0  0  0  0  0  0  0  0  0  0
   -0.4185   -1.3668    0.1020 H   0  0  0  0  0  0  0  0  0  0  0  0
    0.8771    0.0397    1.7324 H   0  0  0  0  0  0  0  0  0  0  0  0
    1.0208    1.3413    0.4976 H   0  0  0  0  0  0  0  0  0  0  0  0
   -2.9572   -1.1694   -0.0374 H   0  0  0  0  0  0  0  0  0  0  0  0
   -2.7842    0.1212   -1.2976 H   0  0  0  0  0  0  0  0  0  0  0  0
   -3.7241    0.4453    0.2081 H   0  0  0  0  0  0  0  0  0  0  0  0
    2.3218   -1.6350    0.2408 O   0  0  0  0  0  0  0  0  0  0  0  0
    3.3127   -0.0071   -1.6691 H   0  0  0  0  0  0  0  0  0  0  0  0
    4.1769    0.2874   -0.0986 H   0  0  0  0  0  0  0  0  0  0  0  0
  1  9  1  0
  1 10  1  0
  1  3  1  0
  1  2  1  0
  2  7  1  0
  2  8  1  0
  2  4  1  0
  3  5  1  0
  3 11  1  0
  3 12  1  0
  4 13  1  0
  4 14  1  0
  4 15  1  0
  5  6  1  0
  5 16  2  0
  6 17  1  0
  6 18  1  0
M  RAD  1   6   2
M  END
