
     RDKit          3D

 10 10  0  0  0  0  0  0  0  0999 V2000
    0.0502    0.7699   -0.0590 C   0  0  0  0  0  0  0  0  0  0  0  0
   -1.0350   -0.2618   -0.0595 C   0  0  0  0  0  0  0  0  0  0  0  0
    0.9913   -0.4105    0.0730 C   0  0  0  0  0  0  0  0  0  0  0  0
   -0.0914   -1.2782   -0.1379 O   0  0  0  0  0  0  0  0  0  0  0  0
    0.2461    1.3018   -0.9998 H   0  0  0  0  0  0  0  0  0  0  0  0
    0.0152    1.4102    0.8564 H   0  0  0  0  0  0  0  0  0  0  0  0
   -1.6473   -0.2457    0.8671 H   0  0  0  0  0  0  0  0  0  0  0  0
   -1.6982   -0.3083   -0.9337 H   0  0  0  0  0  0  0  0  0  0  0  0
    1.7622   -0.4876   -0.7098 H   0  0  0  0  0  0  0  0  0  0  0  0
    1.4070   -0.4899    1.1032 H   0  0  0  0  0  0  0  0  0  0  0  0
  1  2  1  0
  1  5  1  0
  1  6  1  0
  1  3  1  0
  2  4  1  0
  2  7  1  0
  2  8  1  0
  3  4  1  0
  3  9  1  0
  3 10  1  0
M  END
