
     RDKit          3D

 10 10  0  0  0  0  0  0  0  0999 V2000
    0.0568    0.7832    0.0117 C   0  0  0  0  0  0  0  0  0  0  0  0
   -1.0218   -0.2650   -0.0767 C   0  0  0  0  0  0  0  0  0  0  0  0
    0.9727   -0.4119    0.0666 C   0  0  0  0  0  0  0  0  0  0  0  0
   -0.0960   -1.3228   -0.0198 O   0  0  0  0  0  0  0  0  0  0  0  0
    0.1676    1.3772   -0.9213 H   0  0  0  0  0  0  0  0  0  0  0  0
    0.0310    1.3589    0.9623 H   0  0  0  0  0  0  0  0  0  0  0  0
   -1.6948   -0.2711    0.8090 H   0  0  0  0  0  0  0  0  0  0  0  0
   -1.5600   -0.2530   -1.0502 H   0  0  0  0  0  0  0  0  0  0  0  0
    1.6397   -0.4887   -0.8204 H   0  0  0  0  0  0  0  0  0  0  0  0
    1.5048   -0.5068    1.0388 H   0  0  0  0  0  0  0  0  0  0  0  0
  1  2  1  0
  1  5  1  0
  1  6  1  0
  1  3  1  0
  2  4  1  0
  2  7  1  0
  2  8  1  0
  3  4  1  0
  3  9  1  0
  3 10  1  0
M  END
