
     RDKit          3D

 13 11  0  0  0  0  0  0  0  0999 V2000
   -0.4390    0.5882    0.0483 C   0  0  0  0  0  0  0  0  0  0  0  0
    0.4390   -0.5882    0.1484 C   0  0  0  0  0  0  0  0  0  0  0  0
   -1.7572    0.4548   -0.0648 C   0  0  0  0  0  0  0  0  0  0  0  0
    1.7572   -0.4548    0.2615 C   0  0  0  0  0  0  0  0  0  0  0  0
   -0.0119    1.5842    0.0663 H   0  0  0  0  0  0  0  0  0  0  0  0
    0.0119   -1.5842    0.1304 H   0  0  0  0  0  0  0  0  0  0  0  0
   -2.2225   -0.5231   -0.0865 H   0  0  0  0  0  0  0  0  0  0  0  0
   -2.3854    1.3331   -0.1371 H   0  0  0  0  0  0  0  0  0  0  0  0
    2.3854   -1.3331    0.3338 H   0  0  0  0  0  0  0  0  0  0  0  0
    2.2225    0.5231    0.2831 H   0  0  0  0  0  0  0  0  0  0  0  0
   -0.1673    0.4482    0.0000 O   0  0  0  0  0  0  0  0  0  0  0  0
    0.9988   -0.1619    0.0000 O   0  0  0  0  0  1  0  0  0  0  0  0
   -0.8315   -0.2863    0.0000 H   0  0  0  0  0  0  0  0  0  0  0  0
  1  3  2  3
  1  2  1  0
  1  5  1  0
  2  6  1  0
  2  4  2  3
  3  7  1  0
  3  8  1  0
  4  9  1  0
  4 10  1  0
 11 12  1  0
 11 13  1  0
M  RAD  1  12   2
M  END
