
     RDKit          3D

  9  8  0  0  0  0  0  0  0  0999 V2000
   -0.1892   -0.4280   -0.4449 C   0  0  0  0  0  0  0  0  0  0  0  0
    0.7374    0.3944    0.3392 C   0  0  0  0  0  0  0  0  0  0  0  0
   -1.4852   -0.1356   -0.5069 C   0  0  0  0  0  0  0  0  0  0  0  0
    1.8742   -0.0903    0.7875 C   0  0  0  0  0  3  0  0  0  0  0  0
    0.1301   -1.4437   -0.6850 H   0  0  0  0  0  0  0  0  0  0  0  0
    0.5257    1.4359    0.5561 H   0  0  0  0  0  0  0  0  0  0  0  0
   -1.8292    0.8817   -0.6727 H   0  0  0  0  0  0  0  0  0  0  0  0
   -2.2116   -0.9159   -0.7177 H   0  0  0  0  0  0  0  0  0  0  0  0
    2.4479    0.3016    1.5973 H   0  0  0  0  0  0  0  0  0  0  0  0
  1  2  1  0
  1  5  1  0
  1  3  2  3
  2  4  2  3
  2  6  1  0
  3  7  1  0
  3  8  1  0
  4  9  1  0
M  RAD  1   4   2
M  END
