
     RDKit          3D

 11  9  0  0  0  0  0  0  0  0999 V2000
    0.1647    0.2531   -0.1076 C   0  0  0  0  0  0  0  0  0  0  0  0
   -1.0250   -0.3140    0.0910 C   0  0  0  0  0  0  0  0  0  0  0  0
    1.3245   -0.5906    0.1340 C   0  0  0  0  0  3  0  0  0  0  0  0
    0.2166    1.3187   -0.2943 H   0  0  0  0  0  0  0  0  0  0  0  0
   -1.6010    0.0961    0.9174 H   0  0  0  0  0  0  0  0  0  0  0  0
   -1.5901   -0.5387   -0.8146 H   0  0  0  0  0  0  0  0  0  0  0  0
    2.5104   -0.2246    0.0741 O   0  0  0  0  0  0  0  0  0  0  0  0
    0.5898    0.3274    0.2793 O   0  0  0  0  0  0  0  0  0  0  0  0
   -0.5943    0.3503   -0.2714 O   0  0  0  0  0  0  0  0  0  0  0  0
    1.1941   -0.3319   -0.1407 H   0  0  0  0  0  0  0  0  0  0  0  0
   -1.1897   -0.3458    0.1328 H   0  0  0  0  0  0  0  0  0  0  0  0
  1  2  2  3
  1  3  1  0
  1  4  1  0
  2  5  1  0
  2  6  1  0
  3  7  2  0
  8  9  1  0
  8 10  1  0
  9 11  1  0
M  RAD  1   3   2
M  END
