
     RDKit          3D

 11  9  0  0  0  0  0  0  0  0999 V2000
    0.1547    0.2334    0.1939 C   0  0  0  0  0  0  0  0  0  0  0  0
   -1.0722   -0.0951   -0.1938 C   0  0  0  0  0  0  0  0  0  0  0  0
    1.3105   -0.5403   -0.2589 C   0  0  0  0  0  3  0  0  0  0  0  0
    0.3003    1.0818    0.8513 H   0  0  0  0  0  0  0  0  0  0  0  0
   -1.9207    0.4839    0.1469 H   0  0  0  0  0  0  0  0  0  0  0  0
   -1.2437   -0.9393   -0.8509 H   0  0  0  0  0  0  0  0  0  0  0  0
    2.4710   -0.2245    0.1116 O   0  0  0  0  0  0  0  0  0  0  0  0
    0.5930    0.3233    0.2661 O   0  0  0  0  0  0  0  0  0  0  0  0
   -0.5857    0.2853   -0.3202 O   0  0  0  0  0  0  0  0  0  0  0  0
    1.1417   -0.3404   -0.2251 H   0  0  0  0  0  0  0  0  0  0  0  0
   -1.1490   -0.2681    0.2792 H   0  0  0  0  0  0  0  0  0  0  0  0
  1  2  2  3
  1  3  1  0
  1  4  1  0
  2  5  1  0
  2  6  1  0
  3  7  2  0
  8  9  1  0
  8 10  1  0
  9 11  1  0
M  RAD  1   3   2
M  END
