
     RDKit          3D

  9  8  0  0  0  0  0  0  0  0999 V2000
   -1.1886    0.0403   -0.0845 C   0  0  0  0  0  0  0  0  0  0  0  0
    0.1681   -0.0948    0.5196 C   0  0  0  0  0  0  0  0  0  0  0  0
    1.3713    0.2127   -0.2596 C   0  0  0  0  0  0  0  0  0  0  0  0
   -1.1305    0.9028   -0.7895 H   0  0  0  0  0  0  0  0  0  0  0  0
   -1.3498   -0.8698   -0.6870 H   0  0  0  0  0  0  0  0  0  0  0  0
   -1.9127    0.1886    0.7248 H   0  0  0  0  0  0  0  0  0  0  0  0
    0.2955   -0.3375    1.7513 O   0  0  0  0  0  0  0  0  0  0  0  0
    2.4879   -0.2111    0.1697 O   0  0  0  0  0  0  0  0  0  0  0  0
    1.2590    0.1688   -1.3447 H   0  0  0  0  0  0  0  0  0  0  0  0
  1  4  1  0
  1  5  1  0
  1  6  1  0
  1  2  1  0
  2  7  2  0
  2  3  1  0
  3  8  2  0
  3  9  1  0
M  END
