
     RDKit          3D

 17 15  0  0  0  0  0  0  0  0999 V2000
    1.0818    0.3364   -0.6330 C   0  0  0  0  0  0  0  0  0  0  0  0
   -1.2006    0.1136   -0.4058 C   0  0  0  0  0  0  0  0  0  0  0  0
    2.4260    0.0061   -0.0026 C   0  0  0  0  0  0  0  0  0  0  0  0
   -2.3072   -0.4560    0.4684 C   0  0  0  0  0  0  0  0  0  0  0  0
    0.0501   -0.1897    0.1740 O   0  0  0  0  0  0  0  0  0  0  0  0
    0.9974    1.4445   -0.7120 H   0  0  0  0  0  0  0  0  0  0  0  0
    1.0558   -0.1123   -1.6523 H   0  0  0  0  0  0  0  0  0  0  0  0
   -1.2887   -0.3411   -1.4190 H   0  0  0  0  0  0  0  0  0  0  0  0
   -1.3470    1.2156   -0.4787 H   0  0  0  0  0  0  0  0  0  0  0  0
    3.2460    0.4156   -0.6297 H   0  0  0  0  0  0  0  0  0  0  0  0
    2.4904    0.4537    1.0119 H   0  0  0  0  0  0  0  0  0  0  0  0
    2.5484   -1.0951    0.0763 H   0  0  0  0  0  0  0  0  0  0  0  0
   -2.1987   -1.5585    0.5487 H   0  0  0  0  0  0  0  0  0  0  0  0
   -3.2968   -0.2231    0.0215 H   0  0  0  0  0  0  0  0  0  0  0  0
   -2.2568   -0.0097    1.4843 H   0  0  0  0  0  0  0  0  0  0  0  0
    0.6580    0.0000    0.0000 O   0  0  0  0  0  1  0  0  0  0  0  0
   -0.6580    0.0000    0.0000 O   0  0  0  0  0  1  0  0  0  0  0  0
  1  3  1  0
  1  5  1  0
  1  6  1  0
  1  7  1  0
  2  8  1  0
  2  9  1  0
  2  5  1  0
  2  4  1  0
  3 10  1  0
  3 11  1  0
  3 12  1  0
  4 13  1  0
  4 14  1  0
  4 15  1  0
 16 17  1  0
M  RAD  2  16   2  17   2
M  END
