
     RDKit          3D

 20 18  0  0  0  0  0  0  0  0999 V2000
    1.3130   -0.8235   -0.1891 C   0  0  0  0  0  0  0  0  0  0  0  0
    2.0625    0.4832    0.0561 C   0  0  0  0  0  0  0  0  0  0  0  0
   -1.1606   -0.0314    0.0732 C   0  0  0  0  0  0  0  0  0  0  0  0
   -0.0047   -0.8407    0.5376 C   0  0  0  0  0  0  0  0  0  0  0  0
   -1.0874    0.6963   -1.2345 C   0  0  0  0  0  3  0  0  0  0  0  0
   -2.2838    0.0457    0.7950 C   0  0  0  0  0  0  0  0  0  0  0  0
    1.9473   -1.6636    0.1692 H   0  0  0  0  0  0  0  0  0  0  0  0
    1.1490   -0.9706   -1.2780 H   0  0  0  0  0  0  0  0  0  0  0  0
    1.4864    1.3485   -0.3329 H   0  0  0  0  0  0  0  0  0  0  0  0
    3.0427    0.4512   -0.4646 H   0  0  0  0  0  0  0  0  0  0  0  0
    2.2428    0.6240    1.1433 H   0  0  0  0  0  0  0  0  0  0  0  0
   -0.1195   -1.5750    1.5572 O   0  0  0  0  0  0  0  0  0  0  0  0
   -1.8500    0.3045   -1.9403 H   0  0  0  0  0  0  0  0  0  0  0  0
   -1.2281    1.7873   -1.0818 H   0  0  0  0  0  0  0  0  0  0  0  0
   -3.1262    0.6307    0.4462 H   0  0  0  0  0  0  0  0  0  0  0  0
   -2.3836   -0.4667    1.7435 H   0  0  0  0  0  0  0  0  0  0  0  0
   -0.6339   -0.2300   -0.2686 O   0  0  0  0  0  0  0  0  0  0  0  0
    0.6231   -0.3579    0.1027 O   0  0  0  0  0  0  0  0  0  0  0  0
   -1.0847    0.1946    0.5056 H   0  0  0  0  0  0  0  0  0  0  0  0
    1.0955    0.3933   -0.3396 H   0  0  0  0  0  0  0  0  0  0  0  0
  1  4  1  0
  1  2  1  0
  1  7  1  0
  1  8  1  0
  2  9  1  0
  2 10  1  0
  2 11  1  0
  3  4  1  0
  3  5  1  0
  3  6  2  3
  4 12  2  0
  5 13  1  0
  5 14  1  0
  6 15  1  0
  6 16  1  0
 17 18  1  0
 17 19  1  0
 18 20  1  0
M  RAD  1   5   2
M  END
