
     RDKit          3D

 20 18  0  0  0  0  0  0  0  0999 V2000
    1.2481   -0.5996   -0.3228 C   0  0  0  0  0  0  0  0  0  0  0  0
    2.2135    0.4765    0.1544 C   0  0  0  0  0  0  0  0  0  0  0  0
   -1.3030   -0.2292   -0.1735 C   0  0  0  0  0  0  0  0  0  0  0  0
   -0.0130   -0.5400    0.4426 C   0  0  0  0  0  0  0  0  0  0  0  0
   -1.4195    0.8565   -1.1771 C   0  0  0  0  0  3  0  0  0  0  0  0
   -2.4078   -0.5032    0.5227 C   0  0  0  0  0  0  0  0  0  0  0  0
    1.7513   -1.5753   -0.1047 H   0  0  0  0  0  0  0  0  0  0  0  0
    1.1223   -0.5447   -1.4115 H   0  0  0  0  0  0  0  0  0  0  0  0
    1.9766    1.4481   -0.3028 H   0  0  0  0  0  0  0  0  0  0  0  0
    3.2680    0.1907   -0.0882 H   0  0  0  0  0  0  0  0  0  0  0  0
    2.1576    0.5004    1.2604 H   0  0  0  0  0  0  0  0  0  0  0  0
    0.0408   -0.9821    1.6311 O   0  0  0  0  0  0  0  0  0  0  0  0
   -2.3866    1.3785   -1.1321 H   0  0  0  0  0  0  0  0  0  0  0  0
   -0.6184    1.6130   -1.0357 H   0  0  0  0  0  0  0  0  0  0  0  0
   -3.1519   -1.1969    0.1457 H   0  0  0  0  0  0  0  0  0  0  0  0
   -2.4779   -0.2926    1.5914 H   0  0  0  0  0  0  0  0  0  0  0  0
   -0.6254   -0.4138   -0.1935 O   0  0  0  0  0  0  0  0  0  0  0  0
    0.6214   -0.4083    0.1957 O   0  0  0  0  0  0  0  0  0  0  0  0
   -1.0793    0.4142    0.1111 H   0  0  0  0  0  0  0  0  0  0  0  0
    1.0834    0.4080   -0.1133 H   0  0  0  0  0  0  0  0  0  0  0  0
  1  4  1  0
  1  2  1  0
  1  7  1  0
  1  8  1  0
  2  9  1  0
  2 10  1  0
  2 11  1  0
  3  4  1  0
  3  5  1  0
  3  6  2  3
  4 12  2  0
  5 13  1  0
  5 14  1  0
  6 15  1  0
  6 16  1  0
 17 18  1  0
 17 19  1  0
 18 20  1  0
M  RAD  1   5   2
M  END
