
     RDKit          3D

 12 12  0  0  0  0  0  0  0  0999 V2000
   -0.0262    1.0730   -0.5882 C   0  0  0  0  0  0  0  0  0  0  0  0
   -1.3158   -0.6895    0.1903 C   0  0  0  0  0  0  0  0  0  0  0  0
    1.3108    0.3473   -0.3963 C   0  0  0  0  0  3  0  0  0  0  0  0
    1.1388   -0.9193    0.3966 C   0  0  0  0  0  0  0  0  0  0  0  0
   -1.0469    0.1515   -0.9192 O   0  0  0  0  0  0  0  0  0  0  0  0
   -0.0777   -1.4011    0.6738 C   0  0  0  0  0  3  0  0  0  0  0  0
   -0.2909    1.6555    0.3245 H   0  0  0  0  0  0  0  0  0  0  0  0
    0.0849    1.7967   -1.4219 H   0  0  0  0  0  0  0  0  0  0  0  0
   -1.7738   -0.1129    1.0240 H   0  0  0  0  0  0  0  0  0  0  0  0
   -2.0504   -1.4577   -0.1272 H   0  0  0  0  0  0  0  0  0  0  0  0
    2.0317    1.0205    0.1142 H   0  0  0  0  0  0  0  0  0  0  0  0
    2.0156   -1.4640    0.7295 H   0  0  0  0  0  0  0  0  0  0  0  0
  1  7  1  0
  1  3  1  0
  1  8  1  0
  1  5  1  0
  2  9  1  0
  2 10  1  0
  2  5  1  0
  2  6  1  0
  3 11  1  0
  3  4  1  0
  4  6  2  0
  4 12  1  0
M  RAD  2   3   2   6   2
M  END
