
     RDKit          3D

 26 25  0  0  0  0  0  0  0  0999 V2000
    0.7648   -0.1411   -0.0975 C   0  0  0  0  0  0  0  0  0  0  0  0
    1.7714    0.9238   -0.5123 C   0  0  0  0  0  0  0  0  0  0  0  0
    1.3327   -1.4402   -0.6544 C   0  0  0  0  0  0  0  0  0  0  0  0
   -1.5069   -0.0179    0.3735 C   0  0  0  0  0  0  0  0  0  0  0  0
   -2.8203    0.1614   -0.3811 C   0  0  0  0  0  0  0  0  0  0  0  0
    1.3118    2.3144   -0.1973 C   0  0  0  0  0  0  0  0  0  0  0  0
    0.8813   -2.6424    0.1249 C   0  0  0  0  0  0  0  0  0  0  0  0
   -1.4757    1.0061    1.4720 C   0  0  0  0  0  3  0  0  0  0  0  0
   -0.5031    0.1303   -0.5604 O   0  0  0  0  0  0  0  0  0  0  0  0
    0.7377   -0.2127    1.0085 H   0  0  0  0  0  0  0  0  0  0  0  0
   -1.5573   -1.0101    0.8426 H   0  0  0  0  0  0  0  0  0  0  0  0
    1.9602    0.8610   -1.5931 H   0  0  0  0  0  0  0  0  0  0  0  0
    2.6914    0.7289    0.0738 H   0  0  0  0  0  0  0  0  0  0  0  0
    1.1262   -1.5024   -1.7321 H   0  0  0  0  0  0  0  0  0  0  0  0
    2.4459   -1.3918   -0.5407 H   0  0  0  0  0  0  0  0  0  0  0  0
   -2.6766    0.6372   -1.3630 H   0  0  0  0  0  0  0  0  0  0  0  0
   -3.2893   -0.8335   -0.5827 H   0  0  0  0  0  0  0  0  0  0  0  0
   -3.5430    0.7415    0.2109 H   0  0  0  0  0  0  0  0  0  0  0  0
    0.3100    2.5571   -0.5891 H   0  0  0  0  0  0  0  0  0  0  0  0
    1.4344    2.5667    0.8816 H   0  0  0  0  0  0  0  0  0  0  0  0
    2.0159    3.0017   -0.7328 H   0  0  0  0  0  0  0  0  0  0  0  0
    1.3643   -3.5244   -0.3649 H   0  0  0  0  0  0  0  0  0  0  0  0
   -0.1995   -2.8273    0.0777 H   0  0  0  0  0  0  0  0  0  0  0  0
    1.2999   -2.5755    1.1373 H   0  0  0  0  0  0  0  0  0  0  0  0
   -1.7740    0.6048    2.4614 H   0  0  0  0  0  0  0  0  0  0  0  0
   -2.1023    1.8844    1.2373 H   0  0  0  0  0  0  0  0  0  0  0  0
  1  3  1  0
  1 10  1  0
  1  9  1  0
  1  2  1  0
  2 12  1  0
  2 13  1  0
  2  6  1  0
  3 15  1  0
  3 14  1  0
  3  7  1  0
  4 11  1  0
  4  5  1  0
  4  8  1  0
  4  9  1  0
  5 16  1  0
  5 17  1  0
  5 18  1  0
  6 19  1  0
  6 20  1  0
  6 21  1  0
  7 23  1  0
  7 24  1  0
  7 22  1  0
  8 25  1  0
  8 26  1  0
M  RAD  1   8   2
M  END
