
     RDKit          3D

 30 28  0  0  0  0  0  0  0  0999 V2000
    0.5435   -0.3487    0.2496 O   0  0  0  0  0  0  0  0  0  0  0  0
   -0.5485    0.3712    0.2321 O   0  0  0  0  0  0  0  0  0  0  0  0
    1.2528    0.1460   -0.2437 H   0  0  0  0  0  0  0  0  0  0  0  0
   -1.2478   -0.1685   -0.2380 H   0  0  0  0  0  0  0  0  0  0  0  0
   -0.7821    0.0736   -0.0796 C   0  0  0  0  0  0  0  0  0  0  0  0
   -1.4173    1.3647    0.4302 C   0  0  0  0  0  0  0  0  0  0  0  0
   -1.8302   -0.9947    0.1577 C   0  0  0  0  0  0  0  0  0  0  0  0
    1.5328   -0.0774   -0.0793 C   0  0  0  0  0  0  0  0  0  0  0  0
    2.6722    0.4699    0.7567 C   0  0  0  0  0  0  0  0  0  0  0  0
   -0.8702    2.5782   -0.2627 C   0  0  0  0  0  0  0  0  0  0  0  0
   -1.3707   -2.3664   -0.2326 C   0  0  0  0  0  0  0  0  0  0  0  0
    1.9310   -1.4628   -0.5119 C   0  0  0  0  0  3  0  0  0  0  0  0
    0.3666   -0.1594    0.6574 O   0  0  0  0  0  0  0  0  0  0  0  0
   -0.5644    0.1690   -1.1659 H   0  0  0  0  0  0  0  0  0  0  0  0
    1.4051    0.5418   -0.9907 H   0  0  0  0  0  0  0  0  0  0  0  0
   -2.5168    1.3248    0.2328 H   0  0  0  0  0  0  0  0  0  0  0  0
   -1.3143    1.4188    1.5245 H   0  0  0  0  0  0  0  0  0  0  0  0
   -2.1061   -1.0051    1.2199 H   0  0  0  0  0  0  0  0  0  0  0  0
   -2.7103   -0.7300   -0.4588 H   0  0  0  0  0  0  0  0  0  0  0  0
    3.5747   -0.1781    0.7023 H   0  0  0  0  0  0  0  0  0  0  0  0
    2.4099    0.5245    1.8379 H   0  0  0  0  0  0  0  0  0  0  0  0
    2.9968    1.4626    0.3941 H   0  0  0  0  0  0  0  0  0  0  0  0
   -0.1805    2.3302   -1.0991 H   0  0  0  0  0  0  0  0  0  0  0  0
   -1.6673    3.2492   -0.6709 H   0  0  0  0  0  0  0  0  0  0  0  0
   -0.3659    3.1987    0.5209 H   0  0  0  0  0  0  0  0  0  0  0  0
   -0.6872   -2.8294    0.5172 H   0  0  0  0  0  0  0  0  0  0  0  0
   -0.9763   -2.4168   -1.2658 H   0  0  0  0  0  0  0  0  0  0  0  0
   -2.2776   -3.0230   -0.2219 H   0  0  0  0  0  0  0  0  0  0  0  0
    1.9265   -1.6108   -1.6003 H   0  0  0  0  0  0  0  0  0  0  0  0
    2.8217   -1.8521    0.0028 H   0  0  0  0  0  0  0  0  0  0  0  0
  1  2  1  0
  1  3  1  0
  2  4  1  0
  5 13  1  0
  5 14  1  0
  5  7  1  0
  5  6  1  0
  6 16  1  0
  6 17  1  0
  6 10  1  0
  7 11  1  0
  7 19  1  0
  7 18  1  0
  8 12  1  0
  8 13  1  0
  8 15  1  0
  8  9  1  0
  9 20  1  0
  9 21  1  0
  9 22  1  0
 10 23  1  0
 10 24  1  0
 10 25  1  0
 11 27  1  0
 11 28  1  0
 11 26  1  0
 12 29  1  0
 12 30  1  0
M  RAD  1  12   2
M  END
