
     RDKit          3D

 30 28  0  0  0  0  0  0  0  0999 V2000
    0.3604   -0.5047    0.3773 O   0  0  0  0  0  0  0  0  0  0  0  0
   -0.4697    0.5061    0.2238 O   0  0  0  0  0  0  0  0  0  0  0  0
    1.1873   -0.2271   -0.0939 H   0  0  0  0  0  0  0  0  0  0  0  0
   -1.0779    0.2256   -0.5072 H   0  0  0  0  0  0  0  0  0  0  0  0
   -0.8743    0.0516   -0.1259 C   0  0  0  0  0  0  0  0  0  0  0  0
   -1.5094    1.4496    0.0219 C   0  0  0  0  0  0  0  0  0  0  0  0
   -1.8775   -1.0088    0.3661 C   0  0  0  0  0  0  0  0  0  0  0  0
    1.4825   -0.0179   -0.1197 C   0  0  0  0  0  0  0  0  0  0  0  0
    2.6401    0.4857    0.7406 C   0  0  0  0  0  0  0  0  0  0  0  0
   -0.6357    2.5597   -0.5571 C   0  0  0  0  0  0  0  0  0  0  0  0
   -1.3501   -2.4313    0.1924 C   0  0  0  0  0  0  0  0  0  0  0  0
    1.7843   -1.4262   -0.6339 C   0  0  0  0  0  3  0  0  0  0  0  0
    0.3030   -0.0251    0.6684 O   0  0  0  0  0  0  0  0  0  0  0  0
   -0.6976   -0.1447   -1.2120 H   0  0  0  0  0  0  0  0  0  0  0  0
    1.4022    0.6709   -0.9918 H   0  0  0  0  0  0  0  0  0  0  0  0
   -2.4864    1.4709   -0.5093 H   0  0  0  0  0  0  0  0  0  0  0  0
   -1.6990    1.6654    1.0964 H   0  0  0  0  0  0  0  0  0  0  0  0
   -2.1093   -0.8408    1.4408 H   0  0  0  0  0  0  0  0  0  0  0  0
   -2.8255   -0.9189   -0.2087 H   0  0  0  0  0  0  0  0  0  0  0  0
    3.5800    0.5109    0.1484 H   0  0  0  0  0  0  0  0  0  0  0  0
    2.7841   -0.1728    1.6241 H   0  0  0  0  0  0  0  0  0  0  0  0
    2.4225    1.5147    1.0972 H   0  0  0  0  0  0  0  0  0  0  0  0
   -0.3995    2.3519   -1.6224 H   0  0  0  0  0  0  0  0  0  0  0  0
   -1.1793    3.5261   -0.4988 H   0  0  0  0  0  0  0  0  0  0  0  0
    0.3055    2.6569    0.0230 H   0  0  0  0  0  0  0  0  0  0  0  0
   -0.4701   -2.6003    0.8474 H   0  0  0  0  0  0  0  0  0  0  0  0
   -1.0677   -2.6147   -0.8660 H   0  0  0  0  0  0  0  0  0  0  0  0
   -2.1406   -3.1566    0.4785 H   0  0  0  0  0  0  0  0  0  0  0  0
    2.6782   -1.4224   -1.2933 H   0  0  0  0  0  0  0  0  0  0  0  0
    1.9398   -2.1335    0.2085 H   0  0  0  0  0  0  0  0  0  0  0  0
  1  2  1  0
  1  3  1  0
  2  4  1  0
  5 13  1  0
  5 14  1  0
  5  7  1  0
  5  6  1  0
  6 16  1  0
  6 17  1  0
  6 10  1  0
  7 11  1  0
  7 19  1  0
  7 18  1  0
  8 12  1  0
  8 13  1  0
  8 15  1  0
  8  9  1  0
  9 20  1  0
  9 21  1  0
  9 22  1  0
 10 23  1  0
 10 24  1  0
 10 25  1  0
 11 27  1  0
 11 28  1  0
 11 26  1  0
 12 29  1  0
 12 30  1  0
M  RAD  1  12   2
M  END
