
     RDKit          3D

 20 18  0  0  0  0  0  0  0  0999 V2000
   -2.0262   -0.6907   -0.1768 C   0  0  0  0  0  0  0  0  0  0  0  0
   -1.2095    1.5320    0.7198 C   0  0  0  0  0  0  0  0  0  0  0  0
    2.7105   -0.2064   -0.2750 C   0  0  0  0  0  0  0  0  0  0  0  0
   -0.8903    0.2687   -0.0042 C   0  0  0  0  0  0  0  0  0  0  0  0
    1.3154   -0.5369   -0.7102 C   0  0  0  0  0  0  0  0  0  0  0  0
    0.2833   -0.2892    0.2947 C   0  0  0  0  0  0  0  0  0  0  0  0
    2.7527    0.7996    0.1830 H   0  0  0  0  0  0  0  0  0  0  0  0
    2.9597   -0.9895    0.4857 H   0  0  0  0  0  0  0  0  0  0  0  0
    3.3938   -0.2310   -1.1360 H   0  0  0  0  0  0  0  0  0  0  0  0
   -1.8847   -1.5325    0.5323 H   0  0  0  0  0  0  0  0  0  0  0  0
   -2.0556   -1.0711   -1.2143 H   0  0  0  0  0  0  0  0  0  0  0  0
   -2.9999   -0.2419    0.0601 H   0  0  0  0  0  0  0  0  0  0  0  0
   -1.8855    1.2727    1.5579 H   0  0  0  0  0  0  0  0  0  0  0  0
   -0.3009    1.9955    1.1689 H   0  0  0  0  0  0  0  0  0  0  0  0
   -1.7598    2.2370    0.0713 H   0  0  0  0  0  0  0  0  0  0  0  0
    1.2129   -1.6308   -1.3444 O   0  0  0  0  0  0  0  0  0  0  0  0
    0.3840   -0.6854    1.2924 H   0  0  0  0  0  0  0  0  0  0  0  0
   -0.1511    0.4217   -0.0000 O   0  0  0  0  0  0  0  0  0  0  0  0
    1.0182   -0.1602    0.0000 O   0  0  0  0  0  1  0  0  0  0  0  0
   -0.8670   -0.2615   -0.0000 H   0  0  0  0  0  0  0  0  0  0  0  0
  1 12  1  0
  1 11  1  0
  1 10  1  0
  1  4  1  0
  2 15  1  0
  2 13  1  0
  2 14  1  0
  2  4  1  0
  3  7  1  0
  3  8  1  0
  3  9  1  0
  3  5  1  0
  4  6  2  3
  5  6  1  0
  5 16  2  0
  6 17  1  0
 18 19  1  0
 18 20  1  0
M  RAD  1  19   2
M  END
