
     RDKit          3D

 28 26  0  0  0  0  0  0  0  0999 V2000
    0.3490    0.0000    0.0000 H   0  0  0  0  0  0  0  0  0  0  0  0
   -0.3490    0.0000    0.0000 H   0  0  0  0  0  0  0  0  0  0  0  0
    1.6456   -0.3336    0.0978 C   0  0  0  0  0  0  0  0  0  0  0  0
   -0.6109    0.1788   -0.0652 C   0  0  0  0  0  0  0  0  0  0  0  0
   -0.9158   -1.2382   -0.4493 C   0  0  0  0  0  0  0  0  0  0  0  0
    2.8173   -0.1973    1.0519 C   0  0  0  0  0  0  0  0  0  0  0  0
    2.0959    0.1976   -1.2344 C   0  0  0  0  0  0  0  0  0  0  0  0
   -2.3735   -1.5513   -0.5645 C   0  0  0  0  0  0  0  0  0  0  0  0
   -1.7827    2.2494    0.7704 C   0  0  0  0  0  0  0  0  0  0  0  0
   -1.7621    0.7629    0.6859 C   0  0  0  0  0  3  0  0  0  0  0  0
    0.5679    0.3349    0.6330 O   0  0  0  0  0  0  0  0  0  0  0  0
    1.4466   -1.4193   -0.0413 H   0  0  0  0  0  0  0  0  0  0  0  0
   -0.5253    0.7614   -1.0169 H   0  0  0  0  0  0  0  0  0  0  0  0
   -0.4454   -1.4457   -1.4441 H   0  0  0  0  0  0  0  0  0  0  0  0
   -0.4868   -1.9770    0.2735 H   0  0  0  0  0  0  0  0  0  0  0  0
    3.1049   -1.1819    1.4958 H   0  0  0  0  0  0  0  0  0  0  0  0
    2.5683    0.4555    1.9232 H   0  0  0  0  0  0  0  0  0  0  0  0
    3.6957    0.2984    0.5702 H   0  0  0  0  0  0  0  0  0  0  0  0
    2.8273    1.0303   -1.0849 H   0  0  0  0  0  0  0  0  0  0  0  0
    2.6696   -0.6096   -1.7512 H   0  0  0  0  0  0  0  0  0  0  0  0
    1.2839    0.4983   -1.9073 H   0  0  0  0  0  0  0  0  0  0  0  0
   -2.6480   -2.5105   -0.0564 H   0  0  0  0  0  0  0  0  0  0  0  0
   -2.6826   -1.6877   -1.6275 H   0  0  0  0  0  0  0  0  0  0  0  0
   -3.0499   -0.7907   -0.1539 H   0  0  0  0  0  0  0  0  0  0  0  0
   -1.9229    2.6392    1.8100 H   0  0  0  0  0  0  0  0  0  0  0  0
   -2.6194    2.6124    0.1205 H   0  0  0  0  0  0  0  0  0  0  0  0
   -0.8532    2.6943    0.3659 H   0  0  0  0  0  0  0  0  0  0  0  0
   -2.0446    0.2294    1.5988 H   0  0  0  0  0  0  0  0  0  0  0  0
  1  2  1  0
  3 12  1  0
  3  7  1  0
  3 11  1  0
  3  6  1  0
  4  5  1  0
  4 11  1  0
  4 10  1  0
  4 13  1  0
  5 15  1  0
  5 14  1  0
  5  8  1  0
  6 18  1  0
  6 17  1  0
  6 16  1  0
  7 21  1  0
  7 19  1  0
  7 20  1  0
  8 23  1  0
  8 22  1  0
  8 24  1  0
  9 25  1  0
  9 26  1  0
  9 10  1  0
  9 27  1  0
 10 28  1  0
M  RAD  1  10   2
M  END
