
     RDKit          3D

 10  8  0  0  0  0  0  0  0  0999 V2000
   -0.7526    0.1531   -0.3270 C   0  0  0  0  0  3  0  0  0  0  0  0
    0.6902   -0.0543    0.0032 C   0  0  0  0  0  0  0  0  0  0  0  0
   -1.2950   -0.8030   -0.3599 H   0  0  0  0  0  0  0  0  0  0  0  0
   -1.1722    0.8266    0.4333 H   0  0  0  0  0  0  0  0  0  0  0  0
    1.5769    0.3274   -0.7241 O   0  0  0  0  0  0  0  0  0  0  0  0
    0.9526   -0.4498    0.9745 H   0  0  0  0  0  0  0  0  0  0  0  0
    0.5414   -0.2616    0.3036 O   0  0  0  0  0  0  0  0  0  0  0  0
   -0.5761    0.4092    0.1668 O   0  0  0  0  0  0  0  0  0  0  0  0
    1.2730    0.0775   -0.2591 H   0  0  0  0  0  0  0  0  0  0  0  0
   -1.2383   -0.2251   -0.2113 H   0  0  0  0  0  0  0  0  0  0  0  0
  1  3  1  0
  1  4  1  0
  1  2  1  0
  2  5  2  0
  2  6  1  0
  7  8  1  0
  7  9  1  0
  8 10  1  0
M  RAD  1   1   2
M  END
