
     RDKit          3D

  7  6  0  0  0  0  0  0  0  0999 V2000
   -1.1598    0.0610   -0.7404 C   0  0  0  0  0  3  0  0  0  0  0  0
    1.1403   -0.2143   -0.5727 C   0  0  0  0  0  3  0  0  0  0  0  0
    0.0207    0.4796   -0.1785 O   0  0  0  0  0  0  0  0  0  0  0  0
   -1.9351    0.8283   -0.4864 H   0  0  0  0  0  0  0  0  0  0  0  0
   -1.5411   -0.8806   -0.3002 H   0  0  0  0  0  0  0  0  0  0  0  0
    1.5097   -0.7934    0.3108 H   0  0  0  0  0  0  0  0  0  0  0  0
    1.9654    0.5193   -0.7613 H   0  0  0  0  0  0  0  0  0  0  0  0
  1  3  1  0
  1  4  1  0
  1  5  1  0
  2  7  1  0
  2  3  1  0
  2  6  1  0
M  RAD  2   1   2   2   2
M  END
