
     RDKit          3D

 22 20  0  0  0  0  0  0  0  0999 V2000
   -1.4792   -0.0156    0.1503 C   0  0  0  0  0  0  0  0  0  0  0  0
    2.0753    0.5712   -0.3810 C   0  0  0  0  0  0  0  0  0  0  0  0
   -2.6384   -0.6073   -0.6419 C   0  0  0  0  0  0  0  0  0  0  0  0
    2.1424   -0.9108   -0.0249 C   0  0  0  0  0  0  0  0  0  0  0  0
   -0.4935    0.6830   -0.7855 C   0  0  0  0  0  3  0  0  0  0  0  0
    0.7284    1.1486   -0.0495 C   0  0  0  0  0  0  0  0  0  0  0  0
   -0.9617   -0.8358    0.6939 H   0  0  0  0  0  0  0  0  0  0  0  0
   -1.8752    0.7107    0.8932 H   0  0  0  0  0  0  0  0  0  0  0  0
    2.2737    0.7024   -1.4663 H   0  0  0  0  0  0  0  0  0  0  0  0
    2.8683    1.1109    0.1816 H   0  0  0  0  0  0  0  0  0  0  0  0
   -3.1931    0.1958   -1.1725 H   0  0  0  0  0  0  0  0  0  0  0  0
   -2.2608   -1.3442   -1.3828 H   0  0  0  0  0  0  0  0  0  0  0  0
   -3.3366   -1.1237    0.0501 H   0  0  0  0  0  0  0  0  0  0  0  0
    1.4052   -1.4882   -0.6227 H   0  0  0  0  0  0  0  0  0  0  0  0
    3.1583   -1.3003   -0.2466 H   0  0  0  0  0  0  0  0  0  0  0  0
    1.9333   -1.0567    1.0565 H   0  0  0  0  0  0  0  0  0  0  0  0
   -0.9770    1.5431   -1.2973 H   0  0  0  0  0  0  0  0  0  0  0  0
    0.6304    2.0170    0.8047 O   0  0  0  0  0  0  0  0  0  0  0  0
   -0.5561    0.3910    0.2545 O   0  0  0  0  0  0  0  0  0  0  0  0
    0.5533   -0.3120    0.3513 O   0  0  0  0  0  0  0  0  0  0  0  0
   -1.1646   -0.1700   -0.2913 H   0  0  0  0  0  0  0  0  0  0  0  0
    1.1674    0.0910   -0.3145 H   0  0  0  0  0  0  0  0  0  0  0  0
  1  8  1  0
  1  3  1  0
  1  7  1  0
  1  5  1  0
  2  9  1  0
  2  4  1  0
  2 10  1  0
  2  6  1  0
  3 11  1  0
  3 12  1  0
  3 13  1  0
  4 16  1  0
  4 14  1  0
  4 15  1  0
  5 17  1  0
  5  6  1  0
  6 18  2  0
 19 20  1  0
 19 21  1  0
 20 22  1  0
M  RAD  1   5   2
M  END
