
     RDKit          3D

  7  5  0  0  0  0  0  0  0  0999 V2000
   -0.4432    0.0550    0.0959 C   0  0  0  0  0  0  0  0  0  0  0  0
    0.8498   -0.4012    0.2645 O   0  0  0  0  0  0  0  0  0  0  0  0
   -1.3490   -0.7936   -0.1364 O   0  0  0  0  0  0  0  0  0  0  0  0
   -0.6862    1.1033    0.0007 H   0  0  0  0  0  0  0  0  0  0  0  0
    1.6285    0.0365   -0.2247 H   0  0  0  0  0  0  0  0  0  0  0  0
    0.6530    0.0000    0.0000 O   0  0  0  0  0  1  0  0  0  0  0  0
   -0.6530    0.0000    0.0000 O   0  0  0  0  0  1  0  0  0  0  0  0
  1  3  2  0
  1  4  1  0
  1  2  1  0
  2  5  1  0
  6  7  1  0
M  RAD  2   6   2   7   2
M  END
