
     RDKit          3D

  7  5  0  0  0  0  0  0  0  0999 V2000
   -0.4467    0.0191    0.0047 C   0  0  0  0  0  0  0  0  0  0  0  0
    0.8484   -0.4826    0.0175 O   0  0  0  0  0  0  0  0  0  0  0  0
   -1.4257   -0.7686    0.0638 O   0  0  0  0  0  0  0  0  0  0  0  0
   -0.6168    1.0861   -0.0561 H   0  0  0  0  0  0  0  0  0  0  0  0
    1.6408    0.1460   -0.0299 H   0  0  0  0  0  0  0  0  0  0  0  0
    0.6580    0.0000    0.0000 O   0  0  0  0  0  1  0  0  0  0  0  0
   -0.6580    0.0000    0.0000 O   0  0  0  0  0  1  0  0  0  0  0  0
  1  3  2  0
  1  4  1  0
  1  2  1  0
  2  5  1  0
  6  7  1  0
M  RAD  2   6   2   7   2
M  END
