
     RDKit          3D

 13 12  0  0  0  0  0  0  0  0999 V2000
    0.1338    0.1339   -0.3244 C   0  0  0  0  0  0  0  0  0  0  0  0
    1.2016   -0.6965    0.3339 C   0  0  0  0  0  0  0  0  0  0  0  0
   -1.2234   -0.5401   -0.2594 C   0  0  0  0  0  0  0  0  0  0  0  0
    0.0608    1.5221    0.2377 C   0  0  0  0  0  0  0  0  0  0  0  0
    0.4111    0.2177   -1.4009 H   0  0  0  0  0  0  0  0  0  0  0  0
    0.8132   -1.3193    1.1713 H   0  0  0  0  0  0  0  0  0  0  0  0
    1.6159   -1.4108   -0.4222 H   0  0  0  0  0  0  0  0  0  0  0  0
    1.9977   -0.0045    0.6915 H   0  0  0  0  0  0  0  0  0  0  0  0
   -1.3918   -1.1219   -1.1986 H   0  0  0  0  0  0  0  0  0  0  0  0
   -1.3043   -1.2414    0.6010 H   0  0  0  0  0  0  0  0  0  0  0  0
   -1.9958    0.2407   -0.1024 H   0  0  0  0  0  0  0  0  0  0  0  0
    0.1613    2.5042   -0.4968 O   0  0  0  0  0  0  0  0  0  0  0  0
   -0.4801    1.7160    1.1695 H   0  0  0  0  0  0  0  0  0  0  0  0
  1  5  1  0
  1  2  1  0
  1  3  1  0
  1  4  1  0
  2  6  1  0
  2  7  1  0
  2  8  1  0
  3 11  1  0
  3 10  1  0
  3  9  1  0
  4 13  1  0
  4 12  2  0
M  END
