
     RDKit          3D

 13 12  0  0  0  0  0  0  0  0999 V2000
    0.0810    0.2032   -0.3547 C   0  0  0  0  0  0  0  0  0  0  0  0
    1.2223   -0.6588    0.1902 C   0  0  0  0  0  0  0  0  0  0  0  0
   -1.2442   -0.5617   -0.3171 C   0  0  0  0  0  0  0  0  0  0  0  0
   -0.0340    1.4699    0.4471 C   0  0  0  0  0  0  0  0  0  0  0  0
    0.3089    0.4556   -1.4146 H   0  0  0  0  0  0  0  0  0  0  0  0
    1.0296   -0.9463    1.2466 H   0  0  0  0  0  0  0  0  0  0  0  0
    1.3282   -1.5819   -0.4189 H   0  0  0  0  0  0  0  0  0  0  0  0
    2.1806   -0.0986    0.1398 H   0  0  0  0  0  0  0  0  0  0  0  0
   -1.1710   -1.4835   -0.9329 H   0  0  0  0  0  0  0  0  0  0  0  0
   -1.5058   -0.8464    0.7251 H   0  0  0  0  0  0  0  0  0  0  0  0
   -2.0599    0.0684   -0.7324 H   0  0  0  0  0  0  0  0  0  0  0  0
    0.1187    2.5567   -0.0875 O   0  0  0  0  0  0  0  0  0  0  0  0
   -0.2543    1.4235    1.5093 H   0  0  0  0  0  0  0  0  0  0  0  0
  1  5  1  0
  1  2  1  0
  1  3  1  0
  1  4  1  0
  2  6  1  0
  2  7  1  0
  2  8  1  0
  3 11  1  0
  3 10  1  0
  3  9  1  0
  4 13  1  0
  4 12  2  0
M  END
