
     RDKit          3D

 25 23  0  0  0  0  0  0  0  0999 V2000
    1.3601    0.2515   -0.4655 C   0  0  0  0  0  0  0  0  0  0  0  0
    1.9758   -0.9893    0.1894 C   0  0  0  0  0  0  0  0  0  0  0  0
    1.6056    1.4998    0.3881 C   0  0  0  0  0  0  0  0  0  0  0  0
   -2.0915    0.9404    0.5621 C   0  0  0  0  0  0  0  0  0  0  0  0
   -1.7201   -1.5570    0.3628 C   0  0  0  0  0  0  0  0  0  0  0  0
   -1.0589   -0.1812    0.4480 C   0  0  0  0  0  3  0  0  0  0  0  0
   -0.1171    0.0510   -0.7068 C   0  0  0  0  0  0  0  0  0  0  0  0
    1.8674    0.4050   -1.4445 H   0  0  0  0  0  0  0  0  0  0  0  0
    1.7949   -1.8840   -0.4441 H   0  0  0  0  0  0  0  0  0  0  0  0
    1.5366   -1.1663    1.1949 H   0  0  0  0  0  0  0  0  0  0  0  0
    3.0734   -0.8575    0.2987 H   0  0  0  0  0  0  0  0  0  0  0  0
    1.1574    1.3841    1.3984 H   0  0  0  0  0  0  0  0  0  0  0  0
    1.1592    2.3910   -0.1029 H   0  0  0  0  0  0  0  0  0  0  0  0
    2.6967    1.6758    0.5009 H   0  0  0  0  0  0  0  0  0  0  0  0
   -2.7487    0.9629   -0.3337 H   0  0  0  0  0  0  0  0  0  0  0  0
   -1.5762    1.9193    0.6594 H   0  0  0  0  0  0  0  0  0  0  0  0
   -2.7167    0.7865    1.4666 H   0  0  0  0  0  0  0  0  0  0  0  0
   -0.9416   -2.3477    0.3189 H   0  0  0  0  0  0  0  0  0  0  0  0
   -2.3632   -1.6293   -0.5405 H   0  0  0  0  0  0  0  0  0  0  0  0
   -2.3421   -1.7328    1.2655 H   0  0  0  0  0  0  0  0  0  0  0  0
   -0.5510    0.0777   -1.8497 O   0  0  0  0  0  0  0  0  0  0  0  0
   -0.6150   -0.3603   -0.1373 O   0  0  0  0  0  0  0  0  0  0  0  0
    0.5983   -0.2112    0.3526 O   0  0  0  0  0  0  0  0  0  0  0  0
   -1.1181    0.4299    0.1874 H   0  0  0  0  0  0  0  0  0  0  0  0
    1.1348    0.1416   -0.4028 H   0  0  0  0  0  0  0  0  0  0  0  0
  1  7  1  0
  1  2  1  0
  1  3  1  0
  1  8  1  0
  2  9  1  0
  2 10  1  0
  2 11  1  0
  3 13  1  0
  3 14  1  0
  3 12  1  0
  4  6  1  0
  4 15  1  0
  4 16  1  0
  4 17  1  0
  5  6  1  0
  5 18  1  0
  5 20  1  0
  5 19  1  0
  6  7  1  0
  7 21  2  0
 22 23  1  0
 22 24  1  0
 23 25  1  0
M  RAD  1   6   2
M  END
