
     RDKit          3D

 15 13  0  0  0  0  0  0  0  0999 V2000
   -1.1979    0.0523   -0.1177 C   0  0  0  0  0  0  0  0  0  0  0  0
    0.1752    0.0223    0.4759 C   0  0  0  0  0  0  0  0  0  0  0  0
    1.1964   -0.1070   -0.3721 C   0  0  0  0  0  0  0  0  0  0  0  0
   -2.2290    0.5458    0.8576 C   0  0  0  0  0  3  0  0  0  0  0  0
    2.5656    0.0098    0.1454 C   0  0  0  0  0  0  0  0  0  0  0  0
   -1.1904    0.6015   -1.0715 H   0  0  0  0  0  0  0  0  0  0  0  0
   -1.4494   -1.0080   -0.3433 H   0  0  0  0  0  0  0  0  0  0  0  0
    0.2554   -0.5436    1.4059 H   0  0  0  0  0  0  0  0  0  0  0  0
    1.0426   -0.8478   -1.1593 H   0  0  0  0  0  0  0  0  0  0  0  0
   -3.2331    0.1328    0.6970 H   0  0  0  0  0  0  0  0  0  0  0  0
   -2.1981    1.6317    1.0327 H   0  0  0  0  0  0  0  0  0  0  0  0
    3.5363   -0.2103   -0.6314 O   0  0  0  0  0  0  0  0  0  0  0  0
    2.7264   -0.2795    1.1855 H   0  0  0  0  0  0  0  0  0  0  0  0
    0.6530    0.0000    0.0000 O   0  0  0  0  0  1  0  0  0  0  0  0
   -0.6530    0.0000    0.0000 O   0  0  0  0  0  1  0  0  0  0  0  0
  1  4  1  0
  1  2  1  0
  1  6  1  0
  1  7  1  0
  2  8  1  0
  2  3  2  3
  3  9  1  0
  3  5  1  0
  4 10  1  0
  4 11  1  0
  5 13  1  0
  5 12  2  0
 14 15  1  0
M  RAD  3   4   2  14   2  15   2
M  END
