
     RDKit          3D

 20 20  0  0  0  0  0  0  0  0999 V2000
   -0.4311    1.2167   -0.4274 C   0  0  0  0  0  0  0  0  0  0  0  0
   -1.0668   -0.6479   -0.5394 C   0  0  0  0  0  0  0  0  0  0  0  0
   -1.3845    0.4443    0.4616 C   0  0  0  0  0  0  0  0  0  0  0  0
    1.0061    1.0451    0.1213 C   0  0  0  0  0  0  0  0  0  0  0  0
    0.1564   -1.4470   -0.0284 C   0  0  0  0  0  0  0  0  0  0  0  0
    1.3683   -0.4801    0.2260 C   0  0  0  0  0  0  0  0  0  0  0  0
   -0.5764    0.2849   -1.4723 O   0  0  0  0  0  0  0  0  0  0  0  0
   -0.7443    2.2485   -0.6964 H   0  0  0  0  0  0  0  0  0  0  0  0
   -1.9334   -1.2393   -0.9059 H   0  0  0  0  0  0  0  0  0  0  0  0
    2.1604   -0.7053   -0.5212 H   0  0  0  0  0  0  0  0  0  0  0  0
    1.8020   -0.6881    1.2279 H   0  0  0  0  0  0  0  0  0  0  0  0
    1.7202    1.5550   -0.5606 H   0  0  0  0  0  0  0  0  0  0  0  0
    1.0831    1.5278    1.1199 H   0  0  0  0  0  0  0  0  0  0  0  0
   -1.0534    0.2684    1.5107 H   0  0  0  0  0  0  0  0  0  0  0  0
   -2.4305    0.8069    0.3617 H   0  0  0  0  0  0  0  0  0  0  0  0
    0.4368   -2.2095   -0.7867 H   0  0  0  0  0  0  0  0  0  0  0  0
   -0.1130   -1.9805    0.9092 H   0  0  0  0  0  0  0  0  0  0  0  0
   -0.1659    0.4487    0.0000 O   0  0  0  0  0  0  0  0  0  0  0  0
    0.9983   -0.1648    0.0000 O   0  0  0  0  0  1  0  0  0  0  0  0
   -0.8324   -0.2838    0.0000 H   0  0  0  0  0  0  0  0  0  0  0  0
  1  7  1  0
  1  3  1  0
  1  4  1  0
  1  8  1  0
  2  5  1  0
  2  7  1  0
  2  9  1  0
  2  3  1  0
  3 15  1  0
  3 14  1  0
  4 13  1  0
  4 12  1  0
  4  6  1  0
  5 17  1  0
  5  6  1  0
  5 16  1  0
  6 10  1  0
  6 11  1  0
 18 19  1  0
 18 20  1  0
M  RAD  1  19   2
M  END
