
     RDKit          3D

 20 20  0  0  0  0  0  0  0  0999 V2000
   -0.4333    1.1992   -0.3425 C   0  0  0  0  0  0  0  0  0  0  0  0
   -1.0130   -0.6170   -0.5481 C   0  0  0  0  0  0  0  0  0  0  0  0
   -1.4345    0.4207    0.4521 C   0  0  0  0  0  0  0  0  0  0  0  0
    0.9904    0.9814    0.0738 C   0  0  0  0  0  0  0  0  0  0  0  0
    0.1826   -1.3594   -0.0320 C   0  0  0  0  0  0  0  0  0  0  0  0
    1.3494   -0.4678    0.2578 C   0  0  0  0  0  0  0  0  0  0  0  0
   -0.6972    0.3844   -1.4462 O   0  0  0  0  0  0  0  0  0  0  0  0
   -0.6595    2.2454   -0.5644 H   0  0  0  0  0  0  0  0  0  0  0  0
   -1.8134   -1.2897   -0.8771 H   0  0  0  0  0  0  0  0  0  0  0  0
    2.1849   -0.7217   -0.4430 H   0  0  0  0  0  0  0  0  0  0  0  0
    1.7643   -0.6822    1.2756 H   0  0  0  0  0  0  0  0  0  0  0  0
    1.6354    1.4444   -0.7158 H   0  0  0  0  0  0  0  0  0  0  0  0
    1.2157    1.4888    1.0266 H   0  0  0  0  0  0  0  0  0  0  0  0
   -1.1460    0.1442    1.4795 H   0  0  0  0  0  0  0  0  0  0  0  0
   -2.4576    0.7912    0.2984 H   0  0  0  0  0  0  0  0  0  0  0  0
    0.4599   -2.1095   -0.8147 H   0  0  0  0  0  0  0  0  0  0  0  0
   -0.1281   -1.8526    0.9201 H   0  0  0  0  0  0  0  0  0  0  0  0
   -0.1534    0.4144   -0.0000 O   0  0  0  0  0  0  0  0  0  0  0  0
    1.0212   -0.1568    0.0000 O   0  0  0  0  0  1  0  0  0  0  0  0
   -0.8678   -0.2576   -0.0000 H   0  0  0  0  0  0  0  0  0  0  0  0
  1  7  1  0
  1  3  1  0
  1  4  1  0
  1  8  1  0
  2  5  1  0
  2  7  1  0
  2  9  1  0
  2  3  1  0
  3 15  1  0
  3 14  1  0
  4 13  1  0
  4 12  1  0
  4  6  1  0
  5 17  1  0
  5  6  1  0
  5 16  1  0
  6 10  1  0
  6 11  1  0
 18 19  1  0
 18 20  1  0
M  RAD  1  19   2
M  END
