
     RDKit          3D

 24 22  0  0  0  0  0  0  0  0999 V2000
    0.3540    0.0000    0.0000 H   0  0  0  0  0  0  0  0  0  0  0  0
   -0.3540    0.0000    0.0000 H   0  0  0  0  0  0  0  0  0  0  0  0
    1.8353    0.7432    0.2161 C   0  0  0  0  0  0  0  0  0  0  0  0
   -0.4888   -0.2923    0.5343 C   0  0  0  0  0  0  0  0  0  0  0  0
    2.5282    1.8810   -0.5375 C   0  0  0  0  0  0  0  0  0  0  0  0
    2.6769   -0.5378    0.1389 C   0  0  0  0  0  0  0  0  0  0  0  0
   -4.2335   -0.8654   -0.0093 C   0  0  0  0  0  0  0  0  0  0  0  0
    0.4272    0.5335   -0.3654 C   0  0  0  0  0  3  0  0  0  0  0  0
   -2.8774   -0.9349    0.6061 C   0  0  0  0  0  0  0  0  0  0  0  0
   -1.8081   -0.2678    0.0015 O   0  0  0  0  0  0  0  0  0  0  0  0
    1.7492    1.0484    1.2824 H   0  0  0  0  0  0  0  0  0  0  0  0
   -0.1299   -1.3426    0.5798 H   0  0  0  0  0  0  0  0  0  0  0  0
   -0.4986    0.1404    1.5582 H   0  0  0  0  0  0  0  0  0  0  0  0
    3.5284    2.0804   -0.0967 H   0  0  0  0  0  0  0  0  0  0  0  0
    2.6540    1.6221   -1.6112 H   0  0  0  0  0  0  0  0  0  0  0  0
    1.9254    2.8113   -0.4613 H   0  0  0  0  0  0  0  0  0  0  0  0
    3.7003   -0.3467    0.5268 H   0  0  0  0  0  0  0  0  0  0  0  0
    2.2257   -1.3381    0.7610 H   0  0  0  0  0  0  0  0  0  0  0  0
    2.7539   -0.8953   -0.9105 H   0  0  0  0  0  0  0  0  0  0  0  0
   -4.5779   -1.8879   -0.2702 H   0  0  0  0  0  0  0  0  0  0  0  0
   -4.2051   -0.2476   -0.9314 H   0  0  0  0  0  0  0  0  0  0  0  0
   -4.9466   -0.4096    0.7090 H   0  0  0  0  0  0  0  0  0  0  0  0
    0.4696    0.1011   -1.3894 H   0  0  0  0  0  0  0  0  0  0  0  0
   -2.7083   -1.5955    1.6669 O   0  0  0  0  0  0  0  0  0  0  0  0
  1  2  1  0
  3  8  1  0
  3  6  1  0
  3  5  1  0
  3 11  1  0
  4  8  1  0
  4 12  1  0
  4 10  1  0
  4 13  1  0
  5 16  1  0
  5 15  1  0
  5 14  1  0
  6 17  1  0
  6 18  1  0
  6 19  1  0
  7 20  1  0
  7 22  1  0
  7 21  1  0
  7  9  1  0
  8 23  1  0
  9 10  1  0
  9 24  2  0
M  RAD  1   8   2
M  END
