
     RDKit          3D

 24 22  0  0  0  0  0  0  0  0999 V2000
    0.3490    0.0000    0.0000 H   0  0  0  0  0  0  0  0  0  0  0  0
   -0.3490    0.0000    0.0000 H   0  0  0  0  0  0  0  0  0  0  0  0
    1.5976    0.5821    0.1569 C   0  0  0  0  0  0  0  0  0  0  0  0
   -0.3504   -1.0040    0.2648 C   0  0  0  0  0  0  0  0  0  0  0  0
    1.9871    1.7627   -0.7232 C   0  0  0  0  0  0  0  0  0  0  0  0
    2.8059   -0.3095    0.4131 C   0  0  0  0  0  0  0  0  0  0  0  0
   -3.9628    0.0003    0.2480 C   0  0  0  0  0  0  0  0  0  0  0  0
    0.6137   -0.2346   -0.6322 C   0  0  0  0  0  3  0  0  0  0  0  0
   -2.8182   -0.9560    0.3660 C   0  0  0  0  0  0  0  0  0  0  0  0
   -1.6338   -0.8083   -0.3192 O   0  0  0  0  0  0  0  0  0  0  0  0
    1.1158    0.9103    1.1012 H   0  0  0  0  0  0  0  0  0  0  0  0
   -0.0781   -2.0728    0.3411 H   0  0  0  0  0  0  0  0  0  0  0  0
   -0.2737   -0.5862    1.2814 H   0  0  0  0  0  0  0  0  0  0  0  0
    2.4646    2.5337   -0.0793 H   0  0  0  0  0  0  0  0  0  0  0  0
    2.6576    1.3994   -1.5156 H   0  0  0  0  0  0  0  0  0  0  0  0
    1.1038    2.1930   -1.2167 H   0  0  0  0  0  0  0  0  0  0  0  0
    3.3203    0.1132    1.2949 H   0  0  0  0  0  0  0  0  0  0  0  0
    2.4456   -1.3248    0.6231 H   0  0  0  0  0  0  0  0  0  0  0  0
    3.4546   -0.2246   -0.4687 H   0  0  0  0  0  0  0  0  0  0  0  0
   -4.8533   -0.5263   -0.1214 H   0  0  0  0  0  0  0  0  0  0  0  0
   -3.6984    0.9015   -0.3227 H   0  0  0  0  0  0  0  0  0  0  0  0
   -4.1737    0.3367    1.2945 H   0  0  0  0  0  0  0  0  0  0  0  0
    1.0827   -0.9365   -1.3444 H   0  0  0  0  0  0  0  0  0  0  0  0
   -2.8069   -1.7493    1.3563 O   0  0  0  0  0  0  0  0  0  0  0  0
  1  2  1  0
  3  8  1  0
  3  6  1  0
  3  5  1  0
  3 11  1  0
  4  8  1  0
  4 12  1  0
  4 10  1  0
  4 13  1  0
  5 16  1  0
  5 15  1  0
  5 14  1  0
  6 17  1  0
  6 18  1  0
  6 19  1  0
  7 20  1  0
  7 22  1  0
  7 21  1  0
  7  9  1  0
  8 23  1  0
  9 10  1  0
  9 24  2  0
M  RAD  1   8   2
M  END
