
     RDKit          3D

 21 20  0  0  0  0  0  0  0  0999 V2000
    0.0918   -0.9203   -0.1847 C   0  0  0  0  0  0  0  0  0  0  0  0
    1.1262    0.1635   -0.1172 C   0  0  0  0  0  0  0  0  0  0  0  0
   -2.2659   -1.5115   -0.2683 C   0  0  0  0  0  0  0  0  0  0  0  0
   -1.2906   -0.4295    0.1841 C   0  0  0  0  0  3  0  0  0  0  0  0
    2.4213   -0.3116    0.4740 C   0  0  0  0  0  0  0  0  0  0  0  0
   -1.6197    0.8766   -0.4216 C   0  0  0  0  0  0  0  0  0  0  0  0
    3.3420    0.6511    0.6194 C   0  0  0  0  0  0  0  0  0  0  0  0
   -1.6360    2.0302    0.2488 C   0  0  0  0  0  0  0  0  0  0  0  0
    0.0994   -1.3309   -1.2239 H   0  0  0  0  0  0  0  0  0  0  0  0
    0.3738   -1.7497    0.4878 H   0  0  0  0  0  0  0  0  0  0  0  0
    1.3944    0.5333   -1.1358 H   0  0  0  0  0  0  0  0  0  0  0  0
    0.8245    1.0277    0.4873 H   0  0  0  0  0  0  0  0  0  0  0  0
   -2.9710   -1.1065   -1.0333 H   0  0  0  0  0  0  0  0  0  0  0  0
   -1.7606   -2.3764   -0.7188 H   0  0  0  0  0  0  0  0  0  0  0  0
   -2.8554   -1.8829    0.5858 H   0  0  0  0  0  0  0  0  0  0  0  0
    2.5323   -1.3023    0.9135 H   0  0  0  0  0  0  0  0  0  0  0  0
   -2.2637    0.8516   -1.3063 H   0  0  0  0  0  0  0  0  0  0  0  0
    3.5393    1.2285   -0.2895 H   0  0  0  0  0  0  0  0  0  0  0  0
    4.1863    0.5121    1.2737 H   0  0  0  0  0  0  0  0  0  0  0  0
   -2.3732    2.2873    0.9828 H   0  0  0  0  0  0  0  0  0  0  0  0
   -0.8953    2.7598   -0.0956 H   0  0  0  0  0  0  0  0  0  0  0  0
  1  9  1  0
  1  2  1  0
  1 10  1  0
  1  4  1  0
  2  5  1  0
  2 11  1  0
  2 12  1  0
  3 13  1  0
  3 14  1  0
  3 15  1  0
  3  4  1  0
  4  6  1  0
  5 16  1  0
  5  7  2  3
  6 17  1  0
  6  8  2  3
  7 18  1  0
  7 19  1  0
  8 21  1  0
  8 20  1  0
M  RAD  1   4   2
M  END
