
     RDKit          3D

 25 23  0  0  0  0  0  0  0  0999 V2000
   -1.4001   -0.2434   -0.5827 C   0  0  0  0  0  0  0  0  0  0  0  0
   -0.0465   -0.6495   -0.1201 C   0  0  0  0  0  0  0  0  0  0  0  0
    0.9120    0.4646    0.1431 C   0  0  0  0  0  0  0  0  0  0  0  0
    2.2987   -0.1633    0.2413 C   0  0  0  0  0  0  0  0  0  0  0  0
   -1.7536    1.1904   -0.3839 C   0  0  0  0  0  0  0  0  0  0  0  0
   -2.4909   -1.0795    0.0796 C   0  0  0  0  0  0  0  0  0  0  0  0
    3.3119    0.6597   -0.4920 C   0  0  0  0  0  0  0  0  0  0  0  0
   -1.4778   -0.4632   -1.6775 H   0  0  0  0  0  0  0  0  0  0  0  0
    0.4397   -1.3318   -0.8632 H   0  0  0  0  0  0  0  0  0  0  0  0
   -0.1150   -1.2607    0.8154 H   0  0  0  0  0  0  0  0  0  0  0  0
    0.9788    1.2046   -0.6659 H   0  0  0  0  0  0  0  0  0  0  0  0
    0.7326    0.9302    1.1454 H   0  0  0  0  0  0  0  0  0  0  0  0
    2.6224   -0.2829    1.2968 H   0  0  0  0  0  0  0  0  0  0  0  0
    2.3242   -1.1710   -0.2360 H   0  0  0  0  0  0  0  0  0  0  0  0
   -2.3359    1.3093    0.5648 H   0  0  0  0  0  0  0  0  0  0  0  0
   -0.9168    1.8977   -0.4243 H   0  0  0  0  0  0  0  0  0  0  0  0
   -2.4621    1.5140   -1.1893 H   0  0  0  0  0  0  0  0  0  0  0  0
   -2.0533   -1.9098    0.6732 H   0  0  0  0  0  0  0  0  0  0  0  0
   -3.0895   -0.4788    0.7914 H   0  0  0  0  0  0  0  0  0  0  0  0
   -3.2007   -1.4972   -0.6557 H   0  0  0  0  0  0  0  0  0  0  0  0
    4.4309    0.7851   -0.0045 O   0  0  0  0  0  0  0  0  0  0  0  0
    3.2910    0.5753   -1.5792 H   0  0  0  0  0  0  0  0  0  0  0  0
   -0.1522    0.4148   -0.0000 O   0  0  0  0  0  0  0  0  0  0  0  0
    1.0220   -0.1574    0.0000 O   0  0  0  0  0  1  0  0  0  0  0  0
   -0.8698   -0.2574   -0.0000 H   0  0  0  0  0  0  0  0  0  0  0  0
  1  2  1  0
  1  6  1  0
  1  8  1  0
  1  5  1  0
  2  3  1  0
  2  9  1  0
  2 10  1  0
  3  4  1  0
  3 11  1  0
  3 12  1  0
  4 13  1  0
  4  7  1  0
  4 14  1  0
  5 15  1  0
  5 16  1  0
  5 17  1  0
  6 18  1  0
  6 19  1  0
  6 20  1  0
  7 21  2  0
  7 22  1  0
 23 24  1  0
 23 25  1  0
M  RAD  1  24   2
M  END
