
     RDKit          3D

 30 30  0  0  0  0  0  0  0  0999 V2000
   -3.1038   -0.3468   -0.2683 C   0  0  0  0  0  0  0  0  0  0  0  0
   -0.9859   -0.0907   -0.6295 C   0  0  0  0  0  0  0  0  0  0  0  0
    0.2563    0.7020   -0.3136 C   0  0  0  0  0  0  0  0  0  0  0  0
    1.0004    0.1932    0.8862 C   0  0  0  0  0  0  0  0  0  0  0  0
    2.4728    0.4550    0.6438 C   0  0  0  0  0  0  0  0  0  0  0  0
    3.2976   -0.7781    0.8869 C   0  0  0  0  0  0  0  0  0  0  0  0
   -3.0654    0.8021   -1.2720 C   0  0  0  0  0  0  0  0  0  0  0  0
   -4.2925   -0.2799    0.6407 C   0  0  0  0  0  0  0  0  0  0  0  0
    4.7067   -0.5239    0.3844 C   0  0  0  0  0  0  0  0  0  0  0  0
   -1.6498    0.6082   -1.8068 C   0  0  0  0  0  3  0  0  0  0  0  0
   -1.9054   -0.0836    0.4115 O   0  0  0  0  0  0  0  0  0  0  0  0
   -3.0650   -1.2967   -0.8174 H   0  0  0  0  0  0  0  0  0  0  0  0
   -0.7504   -1.1583   -0.8668 H   0  0  0  0  0  0  0  0  0  0  0  0
   -0.0510    1.7528   -0.1820 H   0  0  0  0  0  0  0  0  0  0  0  0
    0.9094    0.6448   -1.2201 H   0  0  0  0  0  0  0  0  0  0  0  0
    0.7816   -0.8524    1.1471 H   0  0  0  0  0  0  0  0  0  0  0  0
    0.6651    0.8028    1.7623 H   0  0  0  0  0  0  0  0  0  0  0  0
    2.8486    1.2482    1.3075 H   0  0  0  0  0  0  0  0  0  0  0  0
    2.6759    0.7711   -0.4097 H   0  0  0  0  0  0  0  0  0  0  0  0
    3.3719   -0.9820    1.9723 H   0  0  0  0  0  0  0  0  0  0  0  0
    2.9234   -1.6738    0.3641 H   0  0  0  0  0  0  0  0  0  0  0  0
   -3.0608    1.7812   -0.7680 H   0  0  0  0  0  0  0  0  0  0  0  0
   -3.8259    0.7008   -2.0581 H   0  0  0  0  0  0  0  0  0  0  0  0
   -4.1414    0.3999    1.5128 H   0  0  0  0  0  0  0  0  0  0  0  0
   -4.4178   -1.2961    1.0956 H   0  0  0  0  0  0  0  0  0  0  0  0
   -5.2272   -0.0745    0.1042 H   0  0  0  0  0  0  0  0  0  0  0  0
    5.0535    0.4966    0.6698 H   0  0  0  0  0  0  0  0  0  0  0  0
    4.7771   -0.6529   -0.7147 H   0  0  0  0  0  0  0  0  0  0  0  0
    5.4234   -1.2458    0.8289 H   0  0  0  0  0  0  0  0  0  0  0  0
   -1.6214   -0.0231   -2.7063 H   0  0  0  0  0  0  0  0  0  0  0  0
  1  8  1  0
  1  7  1  0
  1 11  1  0
  1 12  1  0
  2 10  1  0
  2 11  1  0
  2 13  1  0
  2  3  1  0
  3  4  1  0
  3 14  1  0
  3 15  1  0
  4 16  1  0
  4  5  1  0
  4 17  1  0
  5 19  1  0
  5 18  1  0
  5  6  1  0
  6 21  1  0
  6  9  1  0
  6 20  1  0
  7 10  1  0
  7 22  1  0
  7 23  1  0
  8 24  1  0
  8 26  1  0
  8 25  1  0
  9 29  1  0
  9 27  1  0
  9 28  1  0
 10 30  1  0
M  RAD  1  10   2
M  END
