
     RDKit          3D

 22 21  0  0  0  0  0  0  0  0999 V2000
   -0.3083   -0.4979   -0.2796 C   0  0  0  0  0  0  0  0  0  0  0  0
    0.9883    0.2577   -0.3037 C   0  0  0  0  0  0  0  0  0  0  0  0
   -1.2840   -0.0084    0.7409 C   0  0  0  0  0  0  0  0  0  0  0  0
    2.1650   -0.7111   -0.3488 C   0  0  0  0  0  0  0  0  0  0  0  0
   -2.6856   -0.1788    0.1694 C   0  0  0  0  0  0  0  0  0  0  0  0
    3.4051    0.1340   -0.1078 C   0  0  0  0  0  0  0  0  0  0  0  0
   -3.4001    1.1414    0.2608 C   0  0  0  0  0  3  0  0  0  0  0  0
   -1.1691   -0.6333    1.6610 H   0  0  0  0  0  0  0  0  0  0  0  0
   -1.0919    1.0334    1.0755 H   0  0  0  0  0  0  0  0  0  0  0  0
   -0.0904   -1.5779   -0.0781 H   0  0  0  0  0  0  0  0  0  0  0  0
   -0.8041   -0.4963   -1.2844 H   0  0  0  0  0  0  0  0  0  0  0  0
    1.0979    1.0041    0.4943 H   0  0  0  0  0  0  0  0  0  0  0  0
    1.0265    0.8060   -1.2759 H   0  0  0  0  0  0  0  0  0  0  0  0
    2.0665   -1.5201    0.3989 H   0  0  0  0  0  0  0  0  0  0  0  0
    2.2208   -1.1440   -1.3647 H   0  0  0  0  0  0  0  0  0  0  0  0
   -3.2763   -0.9118    0.7393 H   0  0  0  0  0  0  0  0  0  0  0  0
   -2.6533   -0.5436   -0.8830 H   0  0  0  0  0  0  0  0  0  0  0  0
    4.3151   -0.4882   -0.2955 H   0  0  0  0  0  0  0  0  0  0  0  0
    3.3771    0.5033    0.9326 H   0  0  0  0  0  0  0  0  0  0  0  0
    3.4189    0.9257   -0.8701 H   0  0  0  0  0  0  0  0  0  0  0  0
   -4.4621    1.0525   -0.0277 H   0  0  0  0  0  0  0  0  0  0  0  0
   -2.8562    1.8534   -0.3721 H   0  0  0  0  0  0  0  0  0  0  0  0
  1  2  1  0
  1 11  1  0
  1  3  1  0
  1 10  1  0
  2 13  1  0
  2 12  1  0
  2  4  1  0
  3  8  1  0
  3  9  1  0
  3  5  1  0
  4 14  1  0
  4 15  1  0
  4  6  1  0
  5 16  1  0
  5 17  1  0
  5  7  1  0
  6 20  1  0
  6 18  1  0
  6 19  1  0
  7 21  1  0
  7 22  1  0
M  RAD  1   7   2
M  END
