
     RDKit          3D

 22 21  0  0  0  0  0  0  0  0999 V2000
   -0.2518   -0.4010   -0.2410 C   0  0  0  0  0  0  0  0  0  0  0  0
    1.1392    0.1420    0.1071 C   0  0  0  0  0  0  0  0  0  0  0  0
   -1.3527    0.5364    0.2693 C   0  0  0  0  0  0  0  0  0  0  0  0
    2.2392   -0.7958   -0.4032 C   0  0  0  0  0  0  0  0  0  0  0  0
   -2.7415   -0.0060   -0.0795 C   0  0  0  0  0  0  0  0  0  0  0  0
    3.6253   -0.2586   -0.0588 C   0  0  0  0  0  0  0  0  0  0  0  0
   -3.8276    0.9221    0.4472 C   0  0  0  0  0  3  0  0  0  0  0  0
   -1.2664    0.6403    1.3737 H   0  0  0  0  0  0  0  0  0  0  0  0
   -1.2235    1.5407   -0.1917 H   0  0  0  0  0  0  0  0  0  0  0  0
   -0.3806   -1.4051    0.2205 H   0  0  0  0  0  0  0  0  0  0  0  0
   -0.3403   -0.5054   -1.3450 H   0  0  0  0  0  0  0  0  0  0  0  0
    1.2278    0.2464    1.2111 H   0  0  0  0  0  0  0  0  0  0  0  0
    1.2684    1.1459   -0.3546 H   0  0  0  0  0  0  0  0  0  0  0  0
    2.1187   -1.8008    0.0571 H   0  0  0  0  0  0  0  0  0  0  0  0
    2.1591   -0.9021   -1.5072 H   0  0  0  0  0  0  0  0  0  0  0  0
   -2.8771   -1.0089    0.3800 H   0  0  0  0  0  0  0  0  0  0  0  0
   -2.8470   -0.1015   -1.1822 H   0  0  0  0  0  0  0  0  0  0  0  0
    4.3998   -0.9570   -0.4399 H   0  0  0  0  0  0  0  0  0  0  0  0
    3.7408   -0.1667    1.0423 H   0  0  0  0  0  0  0  0  0  0  0  0
    3.7815    0.7358   -0.5286 H   0  0  0  0  0  0  0  0  0  0  0  0
   -4.8288    0.4838    0.2510 H   0  0  0  0  0  0  0  0  0  0  0  0
   -3.7627    1.9154   -0.0460 H   0  0  0  0  0  0  0  0  0  0  0  0
  1  2  1  0
  1 11  1  0
  1  3  1  0
  1 10  1  0
  2 13  1  0
  2 12  1  0
  2  4  1  0
  3  8  1  0
  3  9  1  0
  3  5  1  0
  4 14  1  0
  4 15  1  0
  4  6  1  0
  5 16  1  0
  5 17  1  0
  5  7  1  0
  6 20  1  0
  6 18  1  0
  6 19  1  0
  7 21  1  0
  7 22  1  0
M  RAD  1   7   2
M  END
