
     RDKit          3D

 11 11  0  0  0  0  0  0  0  0999 V2000
    1.0870   -0.5519    0.1673 C   0  0  0  0  0  0  0  0  0  0  0  0
   -1.1382   -0.4523   -0.0904 C   0  0  0  0  0  0  0  0  0  0  0  0
   -0.5954    0.9134   -0.2884 C   0  0  0  0  0  0  0  0  0  0  0  0
    0.6882    0.8738    0.0651 C   0  0  0  0  0  0  0  0  0  0  0  0
   -0.0681   -1.3025    0.0482 O   0  0  0  0  0  0  0  0  0  0  0  0
    1.7355   -0.8534   -0.6938 H   0  0  0  0  0  0  0  0  0  0  0  0
    1.5441   -0.8061    1.1467 H   0  0  0  0  0  0  0  0  0  0  0  0
   -1.7283   -0.7909   -0.9726 H   0  0  0  0  0  0  0  0  0  0  0  0
   -1.7386   -0.5419    0.8468 H   0  0  0  0  0  0  0  0  0  0  0  0
   -1.1703    1.8192   -0.2887 H   0  0  0  0  0  0  0  0  0  0  0  0
    1.3841    1.6927    0.0599 H   0  0  0  0  0  0  0  0  0  0  0  0
  1  4  1  0
  1  6  1  0
  1  7  1  0
  1  5  1  0
  2  3  1  0
  2  5  1  0
  2  9  1  0
  2  8  1  0
  3  4  2  0
  3 10  1  0
  4 11  1  0
M  END
