
     RDKit          3D

 25 24  0  0  0  0  0  0  0  0999 V2000
    1.0460   -0.3398    0.0198 C   0  0  0  0  0  0  0  0  0  0  0  0
   -1.5332   -0.0800    0.4127 C   0  0  0  0  0  0  0  0  0  0  0  0
   -0.1777    0.6113    0.1206 C   0  0  0  0  0  0  0  0  0  0  0  0
    2.3256    0.4548   -0.3214 C   0  0  0  0  0  0  0  0  0  0  0  0
    1.2642   -1.1229    1.3249 C   0  0  0  0  0  0  0  0  0  0  0  0
   -2.6370    0.9781    0.5440 C   0  0  0  0  0  0  0  0  0  0  0  0
   -1.9135   -1.0947   -0.6761 C   0  0  0  0  0  0  0  0  0  0  0  0
    2.2592    1.0718   -1.7149 C   0  0  0  0  0  3  0  0  0  0  0  0
    0.8808   -1.0753   -0.7966 H   0  0  0  0  0  0  0  0  0  0  0  0
   -1.4781   -0.6102    1.3870 H   0  0  0  0  0  0  0  0  0  0  0  0
   -0.2766    1.1777   -0.8314 H   0  0  0  0  0  0  0  0  0  0  0  0
    0.0211    1.3575    0.9220 H   0  0  0  0  0  0  0  0  0  0  0  0
    2.4822    1.2628    0.4262 H   0  0  0  0  0  0  0  0  0  0  0  0
    3.2109   -0.2176   -0.2884 H   0  0  0  0  0  0  0  0  0  0  0  0
    2.2006   -1.7181    1.2686 H   0  0  0  0  0  0  0  0  0  0  0  0
    0.4366   -1.8415    1.4949 H   0  0  0  0  0  0  0  0  0  0  0  0
    1.3336   -0.4306    2.1912 H   0  0  0  0  0  0  0  0  0  0  0  0
   -2.7607    1.5372   -0.4085 H   0  0  0  0  0  0  0  0  0  0  0  0
   -2.3857    1.6978    1.3523 H   0  0  0  0  0  0  0  0  0  0  0  0
   -3.6037    0.4965    0.8047 H   0  0  0  0  0  0  0  0  0  0  0  0
   -1.8777   -0.6237   -1.6819 H   0  0  0  0  0  0  0  0  0  0  0  0
   -1.2274   -1.9661   -0.6554 H   0  0  0  0  0  0  0  0  0  0  0  0
   -2.9396   -1.4829   -0.5005 H   0  0  0  0  0  0  0  0  0  0  0  0
    3.1687    1.6796   -1.9054 H   0  0  0  0  0  0  0  0  0  0  0  0
    2.1815    0.2782   -2.4882 H   0  0  0  0  0  0  0  0  0  0  0  0
  1  5  1  0
  1  9  1  0
  1  3  1  0
  1  4  1  0
  2  6  1  0
  2  7  1  0
  2 10  1  0
  2  3  1  0
  3 11  1  0
  3 12  1  0
  4 13  1  0
  4 14  1  0
  4  8  1  0
  5 17  1  0
  5 15  1  0
  5 16  1  0
  6 20  1  0
  6 19  1  0
  6 18  1  0
  7 21  1  0
  7 23  1  0
  7 22  1  0
  8 25  1  0
  8 24  1  0
M  RAD  1   8   2
M  END
