
     RDKit          3D

 19 17  0  0  0  0  0  0  0  0999 V2000
   -0.4062   -0.2998   -0.2675 C   0  0  0  0  0  0  0  0  0  0  0  0
   -1.6544   -0.8939    0.3846 C   0  0  0  0  0  0  0  0  0  0  0  0
    2.0701    0.1448    0.1559 C   0  0  0  0  0  0  0  0  0  0  0  0
    0.7107   -0.1634    0.7770 C   0  0  0  0  0  3  0  0  0  0  0  0
   -0.7353    1.0372   -0.8753 C   0  0  0  0  0  0  0  0  0  0  0  0
   -0.0726   -1.0022   -1.0642 H   0  0  0  0  0  0  0  0  0  0  0  0
   -1.4204   -1.8907    0.8163 H   0  0  0  0  0  0  0  0  0  0  0  0
   -2.4566   -1.0233   -0.3734 H   0  0  0  0  0  0  0  0  0  0  0  0
   -2.0297   -0.2318    1.1951 H   0  0  0  0  0  0  0  0  0  0  0  0
    2.3441   -0.6428   -0.5771 H   0  0  0  0  0  0  0  0  0  0  0  0
    2.8400    0.1673    0.9548 H   0  0  0  0  0  0  0  0  0  0  0  0
    2.0518    1.1328   -0.3505 H   0  0  0  0  0  0  0  0  0  0  0  0
    0.4540    0.5977    1.5467 H   0  0  0  0  0  0  0  0  0  0  0  0
   -0.6078    1.2190   -2.0756 O   0  0  0  0  0  0  0  0  0  0  0  0
   -1.0878    1.8491   -0.2466 H   0  0  0  0  0  0  0  0  0  0  0  0
    0.5407    0.3805    0.2996 O   0  0  0  0  0  0  0  0  0  0  0  0
   -0.6135    0.2259   -0.3155 O   0  0  0  0  0  0  0  0  0  0  0  0
    1.1801   -0.1719   -0.2190 H   0  0  0  0  0  0  0  0  0  0  0  0
   -1.1073   -0.4345    0.2349 H   0  0  0  0  0  0  0  0  0  0  0  0
  1  4  1  0
  1  2  1  0
  1  5  1  0
  1  6  1  0
  2  7  1  0
  2  9  1  0
  2  8  1  0
  3  4  1  0
  3 10  1  0
  3 11  1  0
  3 12  1  0
  4 13  1  0
  5 14  2  0
  5 15  1  0
 16 17  1  0
 16 18  1  0
 17 19  1  0
M  RAD  1   4   2
M  END
