
     RDKit          3D

 12 10  0  0  0  0  0  0  0  0999 V2000
   -0.0099    0.6426   -0.1297 C   0  0  0  0  0  0  0  0  0  0  0  0
   -0.9468   -0.5383   -0.2147 C   0  0  0  0  0  0  0  0  0  0  0  0
    1.2776    0.1969    0.4909 C   0  0  0  0  0  0  0  0  0  0  0  0
    0.1442    1.1482   -1.1045 H   0  0  0  0  0  0  0  0  0  0  0  0
   -0.4540    1.4012    0.5577 H   0  0  0  0  0  0  0  0  0  0  0  0
   -1.4024   -0.6325    0.8030 H   0  0  0  0  0  0  0  0  0  0  0  0
   -1.7707   -0.3526   -0.9218 H   0  0  0  0  0  0  0  0  0  0  0  0
   -0.3942   -1.4844   -0.4235 H   0  0  0  0  0  0  0  0  0  0  0  0
    2.3147    0.3372   -0.1494 O   0  0  0  0  0  0  0  0  0  0  0  0
    1.2416   -0.7183    1.0922 H   0  0  0  0  0  0  0  0  0  0  0  0
    0.6530    0.0000    0.0000 O   0  0  0  0  0  1  0  0  0  0  0  0
   -0.6530    0.0000    0.0000 O   0  0  0  0  0  1  0  0  0  0  0  0
  1  2  1  0
  1  3  1  0
  1  4  1  0
  1  5  1  0
  2  6  1  0
  2  7  1  0
  2  8  1  0
  3 10  1  0
  3  9  2  0
 11 12  1  0
M  RAD  2  11   2  12   2
M  END
