
     RDKit          3D

 13 11  0  0  0  0  0  0  0  0999 V2000
   -1.2589    0.4073   -0.2521 C   0  0  0  0  0  0  0  0  0  0  0  0
   -0.3615   -0.7498   -0.5867 C   0  0  0  0  0  3  0  0  0  0  0  0
    0.8518   -0.7754    0.2626 C   0  0  0  0  0  0  0  0  0  0  0  0
    1.6082    0.3313    0.2355 C   0  0  0  0  0  0  0  0  0  0  0  0
   -2.0149    0.1946    0.5097 H   0  0  0  0  0  0  0  0  0  0  0  0
   -0.6014    1.2068    0.1728 H   0  0  0  0  0  0  0  0  0  0  0  0
   -1.7656    0.7419   -1.1919 H   0  0  0  0  0  0  0  0  0  0  0  0
   -0.8731   -1.7124   -0.6782 H   0  0  0  0  0  0  0  0  0  0  0  0
    0.8136   -1.2733    1.2371 H   0  0  0  0  0  0  0  0  0  0  0  0
    2.2613    0.4906   -0.6282 H   0  0  0  0  0  0  0  0  0  0  0  0
    1.3405    1.1384    0.9194 H   0  0  0  0  0  0  0  0  0  0  0  0
    0.6530    0.0000    0.0000 O   0  0  0  0  0  1  0  0  0  0  0  0
   -0.6530    0.0000    0.0000 O   0  0  0  0  0  1  0  0  0  0  0  0
  1  7  1  0
  1  2  1  0
  1  5  1  0
  1  6  1  0
  2  3  1  0
  2  8  1  0
  3  4  2  3
  3  9  1  0
  4 10  1  0
  4 11  1  0
 12 13  1  0
M  RAD  3   2   2  12   2  13   2
M  END
