
     RDKit          3D

 19 17  0  0  0  0  0  0  0  0999 V2000
   -0.0305   -0.1511   -0.5226 C   0  0  0  0  0  0  0  0  0  0  0  0
   -2.4944    0.0621   -0.0121 C   0  0  0  0  0  0  0  0  0  0  0  0
    2.4303    0.3077    0.1982 C   0  0  0  0  0  0  0  0  0  0  0  0
   -1.1259   -0.3360    0.5268 C   0  0  0  0  0  3  0  0  0  0  0  0
    1.2857   -0.6413    0.0099 C   0  0  0  0  0  0  0  0  0  0  0  0
    0.0423    0.9246   -0.7956 H   0  0  0  0  0  0  0  0  0  0  0  0
   -0.2824   -0.7277   -1.4387 H   0  0  0  0  0  0  0  0  0  0  0  0
   -2.4986    1.1345   -0.3016 H   0  0  0  0  0  0  0  0  0  0  0  0
   -2.7543   -0.5609   -0.8938 H   0  0  0  0  0  0  0  0  0  0  0  0
   -3.2600   -0.1007    0.7747 H   0  0  0  0  0  0  0  0  0  0  0  0
    2.1382    1.1055    0.9127 H   0  0  0  0  0  0  0  0  0  0  0  0
    2.6967    0.7686   -0.7759 H   0  0  0  0  0  0  0  0  0  0  0  0
    3.3198   -0.2240    0.5985 H   0  0  0  0  0  0  0  0  0  0  0  0
   -0.8930    0.2626    1.4346 H   0  0  0  0  0  0  0  0  0  0  0  0
    1.4262   -1.8237    0.2851 O   0  0  0  0  0  0  0  0  0  0  0  0
   -0.5839   -0.3062   -0.3036 O   0  0  0  0  0  0  0  0  0  0  0  0
    0.5820   -0.3047    0.3087 O   0  0  0  0  0  0  0  0  0  0  0  0
   -1.1496    0.3109    0.2274 H   0  0  0  0  0  0  0  0  0  0  0  0
    1.1515    0.3000   -0.2325 H   0  0  0  0  0  0  0  0  0  0  0  0
  1  4  1  0
  1  5  1  0
  1  7  1  0
  1  6  1  0
  2  4  1  0
  2  8  1  0
  2  9  1  0
  2 10  1  0
  3  5  1  0
  3 12  1  0
  3 13  1  0
  3 11  1  0
  4 14  1  0
  5 15  2  0
 16 17  1  0
 16 18  1  0
 17 19  1  0
M  RAD  1   4   2
M  END
