
     RDKit          3D

 23 22  0  0  0  0  0  0  0  0999 V2000
   -2.0630    0.1481   -0.2030 C   0  0  0  0  0  0  0  0  0  0  0  0
    2.7152    0.5857    0.0455 C   0  0  0  0  0  0  0  0  0  0  0  0
    1.4793    0.0952   -0.6980 C   0  0  0  0  0  0  0  0  0  0  0  0
   -2.9349    0.6831    0.9229 C   0  0  0  0  0  0  0  0  0  0  0  0
   -2.5193   -1.2080   -0.6694 C   0  0  0  0  0  0  0  0  0  0  0  0
    3.4218   -0.6199    0.6525 C   0  0  0  0  0  0  0  0  0  0  0  0
    0.3173    0.8006   -0.0964 C   0  0  0  0  0  0  0  0  0  0  0  0
   -0.6881    0.0519    0.3301 C   0  0  0  0  0  3  0  0  0  0  0  0
   -2.1707    0.8518   -1.0432 H   0  0  0  0  0  0  0  0  0  0  0  0
    2.4605    1.2552    0.8905 H   0  0  0  0  0  0  0  0  0  0  0  0
    3.3862    1.0588   -0.7030 H   0  0  0  0  0  0  0  0  0  0  0  0
    1.3855   -1.0056   -0.6354 H   0  0  0  0  0  0  0  0  0  0  0  0
    1.5282    0.3287   -1.7846 H   0  0  0  0  0  0  0  0  0  0  0  0
    2.9443   -0.8608    1.6258 H   0  0  0  0  0  0  0  0  0  0  0  0
    3.2527   -1.4581   -0.0637 H   0  0  0  0  0  0  0  0  0  0  0  0
    4.5106   -0.4133    0.7505 H   0  0  0  0  0  0  0  0  0  0  0  0
   -2.5947    0.2686    1.8996 H   0  0  0  0  0  0  0  0  0  0  0  0
   -4.0021    0.4950    0.7158 H   0  0  0  0  0  0  0  0  0  0  0  0
   -2.7248    1.7812    0.9678 H   0  0  0  0  0  0  0  0  0  0  0  0
   -2.4724   -1.9553    0.1343 H   0  0  0  0  0  0  0  0  0  0  0  0
   -3.5104   -1.1456   -1.1712 H   0  0  0  0  0  0  0  0  0  0  0  0
   -1.7969   -1.5382   -1.4486 H   0  0  0  0  0  0  0  0  0  0  0  0
    0.0757    1.8008   -0.4187 H   0  0  0  0  0  0  0  0  0  0  0  0
  1  9  1  0
  1  4  1  0
  1  5  1  0
  1  8  1  0
  2 10  1  0
  2  3  1  0
  2 11  1  0
  2  6  1  0
  3 12  1  0
  3 13  1  0
  3  7  1  0
  4 17  1  0
  4 19  1  0
  4 18  1  0
  5 20  1  0
  5 21  1  0
  5 22  1  0
  6 14  1  0
  6 15  1  0
  6 16  1  0
  7 23  1  0
  7  8  2  3
M  RAD  1   8   2
M  END
