
     RDKit          3D

 17 15  0  0  0  0  0  0  0  0999 V2000
    0.0854    0.1301    0.1465 C   0  0  0  0  0  0  0  0  0  0  0  0
   -1.2683    0.2294   -0.4871 C   0  0  0  0  0  0  0  0  0  0  0  0
    0.8854   -0.9707   -0.5063 C   0  0  0  0  0  0  0  0  0  0  0  0
    0.8325    1.4422    0.1681 C   0  0  0  0  0  3  0  0  0  0  0  0
   -0.1112   -0.2540    1.4835 O   0  0  0  0  0  0  0  0  0  0  0  0
   -1.3409    0.9684   -1.3015 H   0  0  0  0  0  0  0  0  0  0  0  0
   -1.9844    0.5508    0.3114 H   0  0  0  0  0  0  0  0  0  0  0  0
   -1.5514   -0.7882   -0.8509 H   0  0  0  0  0  0  0  0  0  0  0  0
    1.3536   -1.6446    0.2550 H   0  0  0  0  0  0  0  0  0  0  0  0
    1.7239   -0.5444   -1.0787 H   0  0  0  0  0  0  0  0  0  0  0  0
    0.2236   -1.6117   -1.1282 H   0  0  0  0  0  0  0  0  0  0  0  0
    1.7871    1.2405    0.7166 H   0  0  0  0  0  0  0  0  0  0  0  0
    0.2378    2.1355    0.8001 H   0  0  0  0  0  0  0  0  0  0  0  0
   -0.8730   -0.8832    1.4715 H   0  0  0  0  0  0  0  0  0  0  0  0
   -0.1548    0.4264   -0.0000 O   0  0  0  0  0  0  0  0  0  0  0  0
    1.0121   -0.1603    0.0000 O   0  0  0  0  0  1  0  0  0  0  0  0
   -0.8572   -0.2661   -0.0000 H   0  0  0  0  0  0  0  0  0  0  0  0
  1  4  1  0
  1  2  1  0
  1  3  1  0
  1  5  1  0
  2  6  1  0
  2  7  1  0
  2  8  1  0
  3  9  1  0
  3 11  1  0
  3 10  1  0
  4 12  1  0
  4 13  1  0
  5 14  1  0
 15 16  1  0
 15 17  1  0
M  RAD  2   4   2  16   2
M  END
