
     RDKit          3D

 17 15  0  0  0  0  0  0  0  0999 V2000
    0.0241    0.0477    0.2393 C   0  0  0  0  0  0  0  0  0  0  0  0
   -1.2331    0.3844   -0.5806 C   0  0  0  0  0  0  0  0  0  0  0  0
    0.9100   -0.9461   -0.5314 C   0  0  0  0  0  0  0  0  0  0  0  0
    0.8162    1.3329    0.4896 C   0  0  0  0  0  3  0  0  0  0  0  0
   -0.3427   -0.4970    1.4840 O   0  0  0  0  0  0  0  0  0  0  0  0
   -0.9553    0.8659   -1.5433 H   0  0  0  0  0  0  0  0  0  0  0  0
   -1.8897    1.0780   -0.0125 H   0  0  0  0  0  0  0  0  0  0  0  0
   -1.8123   -0.5376   -0.8025 H   0  0  0  0  0  0  0  0  0  0  0  0
    1.8035   -1.2147    0.0724 H   0  0  0  0  0  0  0  0  0  0  0  0
    1.2502   -0.5033   -1.4926 H   0  0  0  0  0  0  0  0  0  0  0  0
    0.3480   -1.8787   -0.7529 H   0  0  0  0  0  0  0  0  0  0  0  0
    1.7362    1.1228    1.0766 H   0  0  0  0  0  0  0  0  0  0  0  0
    0.2008    2.0759    1.0413 H   0  0  0  0  0  0  0  0  0  0  0  0
   -0.8559   -1.3302    1.3127 H   0  0  0  0  0  0  0  0  0  0  0  0
   -0.1114    0.4652    0.0000 O   0  0  0  0  0  0  0  0  0  0  0  0
    0.9716   -0.2824    0.0000 O   0  0  0  0  0  1  0  0  0  0  0  0
   -0.8602   -0.1828    0.0000 H   0  0  0  0  0  0  0  0  0  0  0  0
  1  4  1  0
  1  2  1  0
  1  3  1  0
  1  5  1  0
  2  6  1  0
  2  7  1  0
  2  8  1  0
  3  9  1  0
  3 11  1  0
  3 10  1  0
  4 12  1  0
  4 13  1  0
  5 14  1  0
 15 16  1  0
 15 17  1  0
M  RAD  2   4   2  16   2
M  END
