
     RDKit          3D

 30 28  0  0  0  0  0  0  0  0999 V2000
    0.4951    0.0000    0.0000 O   0  0  0  0  0  1  0  0  0  0  0  0
   -0.4951    0.0000    0.0000 H   0  0  0  0  0  0  0  0  0  0  0  0
    2.4434    0.3516   -0.1223 C   0  0  0  0  0  0  0  0  0  0  0  0
   -2.1629   -0.2767   -0.3672 C   0  0  0  0  0  0  0  0  0  0  0  0
    1.0335    0.2553   -0.7418 C   0  0  0  0  0  0  0  0  0  0  0  0
   -1.1600    0.2128    0.6994 C   0  0  0  0  0  0  0  0  0  0  0  0
    3.4873   -0.2110   -1.0945 C   0  0  0  0  0  0  0  0  0  0  0  0
    2.5192   -0.3930    1.2191 C   0  0  0  0  0  0  0  0  0  0  0  0
   -3.2163   -1.1856    0.2773 C   0  0  0  0  0  0  0  0  0  0  0  0
   -2.8477    0.9007   -1.0768 C   0  0  0  0  0  0  0  0  0  0  0  0
   -0.0023    0.9651    0.0940 C   0  0  0  0  0  0  0  0  0  0  0  0
    2.6903    1.4221    0.0553 H   0  0  0  0  0  0  0  0  0  0  0  0
   -1.6238   -0.8785   -1.1313 H   0  0  0  0  0  0  0  0  0  0  0  0
    0.7600   -0.8149   -0.8687 H   0  0  0  0  0  0  0  0  0  0  0  0
    1.0346    0.7213   -1.7512 H   0  0  0  0  0  0  0  0  0  0  0  0
   -1.6873    0.8625    1.4332 H   0  0  0  0  0  0  0  0  0  0  0  0
   -0.7519   -0.6551    1.2619 H   0  0  0  0  0  0  0  0  0  0  0  0
    3.4653    0.3544   -2.0506 H   0  0  0  0  0  0  0  0  0  0  0  0
    3.2878   -1.2834   -1.3071 H   0  0  0  0  0  0  0  0  0  0  0  0
    4.5063   -0.1143   -0.6625 H   0  0  0  0  0  0  0  0  0  0  0  0
    3.5456   -0.3242    1.6385 H   0  0  0  0  0  0  0  0  0  0  0  0
    1.8220    0.0602    1.9550 H   0  0  0  0  0  0  0  0  0  0  0  0
    2.2565   -1.4648    1.0882 H   0  0  0  0  0  0  0  0  0  0  0  0
   -2.7270   -2.0623    0.7529 H   0  0  0  0  0  0  0  0  0  0  0  0
   -3.9218   -1.5631   -0.4935 H   0  0  0  0  0  0  0  0  0  0  0  0
   -3.7918   -0.6324    1.0507 H   0  0  0  0  0  0  0  0  0  0  0  0
   -2.0981    1.5204   -1.6125 H   0  0  0  0  0  0  0  0  0  0  0  0
   -3.5751    0.5252   -1.8278 H   0  0  0  0  0  0  0  0  0  0  0  0
   -3.3866    1.5403   -0.3450 H   0  0  0  0  0  0  0  0  0  0  0  0
    0.1010    2.1673    0.2885 O   0  0  0  0  0  0  0  0  0  0  0  0
  1  2  1  0
  3  5  1  0
  3  7  1  0
  3 12  1  0
  3  8  1  0
  4  9  1  0
  4  6  1  0
  4 13  1  0
  4 10  1  0
  5 11  1  0
  5 15  1  0
  5 14  1  0
  6 11  1  0
  6 16  1  0
  6 17  1  0
  7 18  1  0
  7 19  1  0
  7 20  1  0
  8 23  1  0
  8 21  1  0
  8 22  1  0
  9 24  1  0
  9 25  1  0
  9 26  1  0
 10 27  1  0
 10 29  1  0
 10 28  1  0
 11 30  2  0
M  RAD  1   1   2
M  END
