
     RDKit          3D

 30 28  0  0  0  0  0  0  0  0999 V2000
    0.4902    0.0000    0.0000 O   0  0  0  0  0  1  0  0  0  0  0  0
   -0.4902    0.0000    0.0000 H   0  0  0  0  0  0  0  0  0  0  0  0
    2.4178    0.1298    0.0072 C   0  0  0  0  0  0  0  0  0  0  0  0
   -2.3933    0.0160   -0.3834 C   0  0  0  0  0  0  0  0  0  0  0  0
    1.1342   -0.4205   -0.5448 C   0  0  0  0  0  0  0  0  0  0  0  0
   -1.1934    0.1553    0.5140 C   0  0  0  0  0  0  0  0  0  0  0  0
    3.4955    0.2625   -1.0330 C   0  0  0  0  0  0  0  0  0  0  0  0
    2.9294   -0.7317    1.1429 C   0  0  0  0  0  0  0  0  0  0  0  0
   -3.3767   -1.0152    0.1134 C   0  0  0  0  0  0  0  0  0  0  0  0
   -3.0619    1.3455   -0.6698 C   0  0  0  0  0  0  0  0  0  0  0  0
    0.0242    0.5162   -0.2412 C   0  0  0  0  0  0  0  0  0  0  0  0
    2.2475    1.1583    0.4169 H   0  0  0  0  0  0  0  0  0  0  0  0
   -2.0028   -0.3520   -1.3663 H   0  0  0  0  0  0  0  0  0  0  0  0
    0.9392   -1.4532   -0.2293 H   0  0  0  0  0  0  0  0  0  0  0  0
    1.2346   -0.4360   -1.6594 H   0  0  0  0  0  0  0  0  0  0  0  0
   -1.3566    0.9044    1.3268 H   0  0  0  0  0  0  0  0  0  0  0  0
   -1.0196   -0.8284    1.0142 H   0  0  0  0  0  0  0  0  0  0  0  0
    3.3368    1.2178   -1.5913 H   0  0  0  0  0  0  0  0  0  0  0  0
    3.4846   -0.5964   -1.7319 H   0  0  0  0  0  0  0  0  0  0  0  0
    4.4920    0.2847   -0.5455 H   0  0  0  0  0  0  0  0  0  0  0  0
    4.0413   -0.8365    1.0666 H   0  0  0  0  0  0  0  0  0  0  0  0
    2.7304   -0.2839    2.1378 H   0  0  0  0  0  0  0  0  0  0  0  0
    2.5066   -1.7593    1.0858 H   0  0  0  0  0  0  0  0  0  0  0  0
   -3.0098   -1.5705    1.0050 H   0  0  0  0  0  0  0  0  0  0  0  0
   -3.6001   -1.7829   -0.6665 H   0  0  0  0  0  0  0  0  0  0  0  0
   -4.3698   -0.5635    0.3640 H   0  0  0  0  0  0  0  0  0  0  0  0
   -2.3109    2.1456   -0.7207 H   0  0  0  0  0  0  0  0  0  0  0  0
   -3.5315    1.2960   -1.6846 H   0  0  0  0  0  0  0  0  0  0  0  0
   -3.8716    1.5872    0.0331 H   0  0  0  0  0  0  0  0  0  0  0  0
    0.0839    1.6105   -0.7987 O   0  0  0  0  0  0  0  0  0  0  0  0
  1  2  1  0
  3  5  1  0
  3  7  1  0
  3 12  1  0
  3  8  1  0
  4  9  1  0
  4  6  1  0
  4 13  1  0
  4 10  1  0
  5 11  1  0
  5 15  1  0
  5 14  1  0
  6 11  1  0
  6 16  1  0
  6 17  1  0
  7 18  1  0
  7 19  1  0
  7 20  1  0
  8 23  1  0
  8 21  1  0
  8 22  1  0
  9 24  1  0
  9 25  1  0
  9 26  1  0
 10 27  1  0
 10 29  1  0
 10 28  1  0
 11 30  2  0
M  RAD  1   1   2
M  END
