
     RDKit          3D

 28 26  0  0  0  0  0  0  0  0999 V2000
   -1.0289   -0.2027    0.1136 C   0  0  0  0  0  0  0  0  0  0  0  0
    1.5244    0.4580   -0.0222 C   0  0  0  0  0  0  0  0  0  0  0  0
    0.4644   -0.6603    0.1217 C   0  0  0  0  0  0  0  0  0  0  0  0
   -1.3818    0.5694   -1.1746 C   0  0  0  0  0  0  0  0  0  0  0  0
   -1.3477    0.6764    1.3427 C   0  0  0  0  0  0  0  0  0  0  0  0
   -1.9144   -1.4660    0.1801 C   0  0  0  0  0  0  0  0  0  0  0  0
    2.9100   -0.0865    0.3471 C   0  0  0  0  0  0  0  0  0  0  0  0
    1.5490    0.9127   -1.3556 O   0  0  0  0  0  0  0  0  0  0  0  0
    1.2850    1.2816    0.6874 H   0  0  0  0  0  0  0  0  0  0  0  0
    0.6488   -1.2060    1.0746 H   0  0  0  0  0  0  0  0  0  0  0  0
    0.6270   -1.3977   -0.6966 H   0  0  0  0  0  0  0  0  0  0  0  0
    3.1868   -0.9293   -0.3221 H   0  0  0  0  0  0  0  0  0  0  0  0
    2.9189   -0.4404    1.4002 H   0  0  0  0  0  0  0  0  0  0  0  0
    3.6741    0.7131    0.2468 H   0  0  0  0  0  0  0  0  0  0  0  0
   -2.4765    0.7537   -1.2329 H   0  0  0  0  0  0  0  0  0  0  0  0
   -1.0775   -0.0089   -2.0735 H   0  0  0  0  0  0  0  0  0  0  0  0
   -0.8819    1.5601   -1.1979 H   0  0  0  0  0  0  0  0  0  0  0  0
   -1.0301    0.1712    2.2801 H   0  0  0  0  0  0  0  0  0  0  0  0
   -0.8415    1.6617    1.2818 H   0  0  0  0  0  0  0  0  0  0  0  0
   -2.4397    0.8741    1.4081 H   0  0  0  0  0  0  0  0  0  0  0  0
   -1.7300   -2.1219   -0.6983 H   0  0  0  0  0  0  0  0  0  0  0  0
   -1.6988   -2.0489    1.1018 H   0  0  0  0  0  0  0  0  0  0  0  0
   -2.9929   -1.1963    0.1875 H   0  0  0  0  0  0  0  0  0  0  0  0
    2.0534    2.1328   -1.3313 O   0  0  0  0  0  1  0  0  0  0  0  0
   -0.5346   -0.2842   -0.4005 O   0  0  0  0  0  0  0  0  0  0  0  0
    0.5196   -0.3265    0.3877 O   0  0  0  0  0  0  0  0  0  0  0  0
   -1.1646    0.3331    0.0522 H   0  0  0  0  0  0  0  0  0  0  0  0
    1.1796    0.2775   -0.0395 H   0  0  0  0  0  0  0  0  0  0  0  0
  1  3  1  0
  1  5  1  0
  1  6  1  0
  1  4  1  0
  2  3  1  0
  2  9  1  0
  2  8  1  0
  2  7  1  0
  3 10  1  0
  3 11  1  0
  4 15  1  0
  4 16  1  0
  4 17  1  0
  5 19  1  0
  5 20  1  0
  5 18  1  0
  6 23  1  0
  6 21  1  0
  6 22  1  0
  7 14  1  0
  7 12  1  0
  7 13  1  0
  8 24  1  0
 25 26  1  0
 25 27  1  0
 26 28  1  0
M  RAD  1  24   2
M  END
