
     RDKit          3D

 28 26  0  0  0  0  0  0  0  0999 V2000
   -0.9849   -0.0963    0.1262 C   0  0  0  0  0  0  0  0  0  0  0  0
    1.4759    0.4763    0.0321 C   0  0  0  0  0  0  0  0  0  0  0  0
    0.4241   -0.5541    0.2754 C   0  0  0  0  0  0  0  0  0  0  0  0
   -1.2654    0.7116   -1.1059 C   0  0  0  0  0  0  0  0  0  0  0  0
   -1.4992    0.6514    1.3328 C   0  0  0  0  0  0  0  0  0  0  0  0
   -1.8311   -1.3630    0.0171 C   0  0  0  0  0  0  0  0  0  0  0  0
    2.8067   -0.2066    0.3412 C   0  0  0  0  0  0  0  0  0  0  0  0
    1.5740    0.8358   -1.3191 O   0  0  0  0  0  0  0  0  0  0  0  0
    1.3790    1.3707    0.6617 H   0  0  0  0  0  0  0  0  0  0  0  0
    0.5466   -0.9101    1.3268 H   0  0  0  0  0  0  0  0  0  0  0  0
    0.5971   -1.4189   -0.3772 H   0  0  0  0  0  0  0  0  0  0  0  0
    2.7428   -1.1981   -0.1756 H   0  0  0  0  0  0  0  0  0  0  0  0
    2.8417   -0.4326    1.4268 H   0  0  0  0  0  0  0  0  0  0  0  0
    3.6627    0.3790   -0.0185 H   0  0  0  0  0  0  0  0  0  0  0  0
   -2.3532    0.5618   -1.3337 H   0  0  0  0  0  0  0  0  0  0  0  0
   -0.7343    0.3723   -2.0064 H   0  0  0  0  0  0  0  0  0  0  0  0
   -1.1783    1.8127   -0.9272 H   0  0  0  0  0  0  0  0  0  0  0  0
   -0.9596    0.3234    2.2326 H   0  0  0  0  0  0  0  0  0  0  0  0
   -1.4101    1.7436    1.2255 H   0  0  0  0  0  0  0  0  0  0  0  0
   -2.5755    0.4001    1.5080 H   0  0  0  0  0  0  0  0  0  0  0  0
   -1.4373   -1.9103   -0.8740 H   0  0  0  0  0  0  0  0  0  0  0  0
   -1.5629   -1.9775    0.8936 H   0  0  0  0  0  0  0  0  0  0  0  0
   -2.9010   -1.1247   -0.0613 H   0  0  0  0  0  0  0  0  0  0  0  0
    2.6423    1.5537   -1.5326 O   0  0  0  0  0  1  0  0  0  0  0  0
   -0.6432   -0.4239   -0.1709 O   0  0  0  0  0  0  0  0  0  0  0  0
    0.6159   -0.4154    0.1759 O   0  0  0  0  0  0  0  0  0  0  0  0
   -1.0610    0.4329    0.0990 H   0  0  0  0  0  0  0  0  0  0  0  0
    1.0883    0.4065   -0.1040 H   0  0  0  0  0  0  0  0  0  0  0  0
  1  3  1  0
  1  5  1  0
  1  6  1  0
  1  4  1  0
  2  3  1  0
  2  9  1  0
  2  8  1  0
  2  7  1  0
  3 10  1  0
  3 11  1  0
  4 15  1  0
  4 16  1  0
  4 17  1  0
  5 19  1  0
  5 20  1  0
  5 18  1  0
  6 23  1  0
  6 21  1  0
  6 22  1  0
  7 14  1  0
  7 12  1  0
  7 13  1  0
  8 24  1  0
 25 26  1  0
 25 27  1  0
 26 28  1  0
M  RAD  1  24   2
M  END
