
     RDKit          3D

 13 11  0  0  0  0  0  0  0  0999 V2000
    1.2991   -0.1183   -0.0813 C   0  0  0  0  0  0  0  0  0  0  0  0
   -1.2851   -0.1878    0.1464 C   0  0  0  0  0  0  0  0  0  0  0  0
   -0.0264    0.5780   -0.1230 C   0  0  0  0  0  0  0  0  0  0  0  0
    2.1234    0.5928   -0.3031 H   0  0  0  0  0  0  0  0  0  0  0  0
    1.3164   -0.9330   -0.8351 H   0  0  0  0  0  0  0  0  0  0  0  0
    1.4615   -0.5512    0.9280 H   0  0  0  0  0  0  0  0  0  0  0  0
   -1.3904   -1.0058   -0.5966 H   0  0  0  0  0  0  0  0  0  0  0  0
   -1.2454   -0.6239    1.1664 H   0  0  0  0  0  0  0  0  0  0  0  0
   -2.1722    0.4774    0.0753 H   0  0  0  0  0  0  0  0  0  0  0  0
   -0.0808    1.7718   -0.3771 O   0  0  0  0  0  0  0  0  0  0  0  0
   -0.1422    0.4567    0.0000 O   0  0  0  0  0  0  0  0  0  0  0  0
    0.9883   -0.2170    0.0000 O   0  0  0  0  0  1  0  0  0  0  0  0
   -0.8461   -0.2397    0.0000 H   0  0  0  0  0  0  0  0  0  0  0  0
  1  3  1  0
  1  4  1  0
  1  5  1  0
  1  6  1  0
  2  3  1  0
  2  7  1  0
  2  8  1  0
  2  9  1  0
  3 10  2  0
 11 12  1  0
 11 13  1  0
M  RAD  1  12   2
M  END
