
     RDKit          3D

 18 17  0  0  0  0  0  0  0  0999 V2000
   -0.7135    0.2824    0.2764 C   0  0  0  0  0  0  0  0  0  0  0  0
    0.5600    0.2757   -0.5994 C   0  0  0  0  0  0  0  0  0  0  0  0
    1.8178   -0.1168    0.1859 C   0  0  0  0  0  0  0  0  0  0  0  0
   -1.8759    0.9252   -0.4915 C   0  0  0  0  0  0  0  0  0  0  0  0
   -1.1072   -1.1326    0.7274 C   0  0  0  0  0  0  0  0  0  0  0  0
    3.0318    0.0404   -0.6737 C   0  0  0  0  0  3  0  0  0  0  0  0
   -0.5264    0.9006    1.1825 H   0  0  0  0  0  0  0  0  0  0  0  0
    0.4246   -0.4190   -1.4583 H   0  0  0  0  0  0  0  0  0  0  0  0
    0.7140    1.2979   -1.0130 H   0  0  0  0  0  0  0  0  0  0  0  0
    1.7538   -1.1764    0.5108 H   0  0  0  0  0  0  0  0  0  0  0  0
    1.9239    0.5328    1.0815 H   0  0  0  0  0  0  0  0  0  0  0  0
   -2.1053    0.3458   -1.4118 H   0  0  0  0  0  0  0  0  0  0  0  0
   -1.6184    1.9672   -0.7782 H   0  0  0  0  0  0  0  0  0  0  0  0
   -2.7853    0.9621    0.1457 H   0  0  0  0  0  0  0  0  0  0  0  0
   -0.3397   -1.5554    1.4075 H   0  0  0  0  0  0  0  0  0  0  0  0
   -2.0653   -1.1042    1.2891 H   0  0  0  0  0  0  0  0  0  0  0  0
   -1.2279   -1.8052   -0.1488 H   0  0  0  0  0  0  0  0  0  0  0  0
    4.1390   -0.2206   -0.2320 O   0  0  0  0  0  0  0  0  0  0  0  0
  1  7  1  0
  1  4  1  0
  1  2  1  0
  1  5  1  0
  2  9  1  0
  2  8  1  0
  2  3  1  0
  3  6  1  0
  3 11  1  0
  3 10  1  0
  4 12  1  0
  4 13  1  0
  4 14  1  0
  5 17  1  0
  5 15  1  0
  5 16  1  0
  6 18  2  0
M  RAD  1   6   2
M  END
