
     RDKit          3D

 18 17  0  0  0  0  0  0  0  0999 V2000
   -0.7373    0.2595    0.2358 C   0  0  0  0  0  0  0  0  0  0  0  0
    0.5113    0.1484   -0.5802 C   0  0  0  0  0  0  0  0  0  0  0  0
    1.7497   -0.1091    0.2383 C   0  0  0  0  0  0  0  0  0  0  0  0
   -1.8358    0.9911   -0.4769 C   0  0  0  0  0  0  0  0  0  0  0  0
   -1.1265   -1.1274    0.6833 C   0  0  0  0  0  0  0  0  0  0  0  0
    2.8872   -0.0659   -0.7393 C   0  0  0  0  0  3  0  0  0  0  0  0
   -0.4899    0.8325    1.1650 H   0  0  0  0  0  0  0  0  0  0  0  0
    0.4512   -0.6443   -1.3422 H   0  0  0  0  0  0  0  0  0  0  0  0
    0.6840    1.1220   -1.0977 H   0  0  0  0  0  0  0  0  0  0  0  0
    1.7803   -1.1349    0.6699 H   0  0  0  0  0  0  0  0  0  0  0  0
    1.9519    0.6634    0.9935 H   0  0  0  0  0  0  0  0  0  0  0  0
   -1.9622    0.7012   -1.5331 H   0  0  0  0  0  0  0  0  0  0  0  0
   -1.5775    2.0773   -0.4336 H   0  0  0  0  0  0  0  0  0  0  0  0
   -2.7697    0.8881    0.1235 H   0  0  0  0  0  0  0  0  0  0  0  0
   -0.3852   -1.4095    1.4744 H   0  0  0  0  0  0  0  0  0  0  0  0
   -2.1426   -1.1851    1.0990 H   0  0  0  0  0  0  0  0  0  0  0  0
   -1.0295   -1.8923   -0.0959 H   0  0  0  0  0  0  0  0  0  0  0  0
    4.0406   -0.1150   -0.3837 O   0  0  0  0  0  0  0  0  0  0  0  0
  1  7  1  0
  1  4  1  0
  1  2  1  0
  1  5  1  0
  2  9  1  0
  2  8  1  0
  2  3  1  0
  3  6  1  0
  3 11  1  0
  3 10  1  0
  4 12  1  0
  4 13  1  0
  4 14  1  0
  5 17  1  0
  5 15  1  0
  5 16  1  0
  6 18  2  0
M  RAD  1   6   2
M  END
