
     RDKit          3D

 24 22  0  0  0  0  0  0  0  0999 V2000
   -0.4631    0.3537    0.4329 O   0  0  0  0  0  0  0  0  0  0  0  0
    0.5173   -0.4828    0.1618 O   0  0  0  0  0  0  0  0  0  0  0  0
   -1.1946    0.0950   -0.1843 H   0  0  0  0  0  0  0  0  0  0  0  0
    1.1404    0.0342   -0.4104 H   0  0  0  0  0  0  0  0  0  0  0  0
   -0.8325   -0.0658   -0.5068 C   0  0  0  0  0  0  0  0  0  0  0  0
    1.7091    0.0788   -0.1626 C   0  0  0  0  0  0  0  0  0  0  0  0
   -2.0909   -0.6624    0.1376 C   0  0  0  0  0  0  0  0  0  0  0  0
   -1.1011    1.3752   -0.9631 C   0  0  0  0  0  0  0  0  0  0  0  0
    2.8208   -0.2469    0.8269 C   0  0  0  0  0  0  0  0  0  0  0  0
    0.3395   -0.1295    0.4891 C   0  0  0  0  0  3  0  0  0  0  0  0
   -1.8679   -2.0060    0.4680 O   0  0  0  0  0  0  0  0  0  0  0  0
   -0.5864   -0.6778   -1.4030 H   0  0  0  0  0  0  0  0  0  0  0  0
    1.8179    1.1334   -0.4935 H   0  0  0  0  0  0  0  0  0  0  0  0
    1.8127   -0.5872   -1.0462 H   0  0  0  0  0  0  0  0  0  0  0  0
   -2.3573   -0.0880    1.0541 H   0  0  0  0  0  0  0  0  0  0  0  0
   -2.9406   -0.5993   -0.5794 H   0  0  0  0  0  0  0  0  0  0  0  0
   -0.2232    1.7816   -1.5067 H   0  0  0  0  0  0  0  0  0  0  0  0
   -1.3214    2.0289   -0.0919 H   0  0  0  0  0  0  0  0  0  0  0  0
   -1.9678    1.4019   -1.6576 H   0  0  0  0  0  0  0  0  0  0  0  0
    3.8077   -0.1053    0.3379 H   0  0  0  0  0  0  0  0  0  0  0  0
    2.7383   -1.3023    1.1641 H   0  0  0  0  0  0  0  0  0  0  0  0
    2.7617    0.4259    1.7091 H   0  0  0  0  0  0  0  0  0  0  0  0
    0.1888    0.5746    1.3373 H   0  0  0  0  0  0  0  0  0  0  0  0
   -2.7075   -2.3298    0.8866 H   0  0  0  0  0  0  0  0  0  0  0  0
  1  2  1  0
  1  3  1  0
  2  4  1  0
  5 10  1  0
  5 12  1  0
  5  7  1  0
  5  8  1  0
  6  9  1  0
  6 10  1  0
  6 13  1  0
  6 14  1  0
  7 11  1  0
  7 15  1  0
  7 16  1  0
  8 17  1  0
  8 18  1  0
  8 19  1  0
  9 21  1  0
  9 22  1  0
  9 20  1  0
 10 23  1  0
 11 24  1  0
M  RAD  1  10   2
M  END
