
     RDKit          3D

 22 20  0  0  0  0  0  0  0  0999 V2000
   -0.1559    0.4302   -0.0000 O   0  0  0  0  0  0  0  0  0  0  0  0
    1.0087   -0.1611    0.0000 O   0  0  0  0  0  1  0  0  0  0  0  0
   -0.8528   -0.2691   -0.0000 H   0  0  0  0  0  0  0  0  0  0  0  0
   -0.4384    0.3730   -0.2194 C   0  0  0  0  0  0  0  0  0  0  0  0
    0.7043   -0.5954    0.0291 C   0  0  0  0  0  0  0  0  0  0  0  0
   -1.7050   -0.3297   -0.6254 C   0  0  0  0  0  0  0  0  0  0  0  0
    1.8796   -0.1093   -0.7975 C   0  0  0  0  0  0  0  0  0  0  0  0
   -2.9462    0.3207   -0.0685 C   0  0  0  0  0  0  0  0  0  0  0  0
    3.0937   -0.5945   -0.3454 O   0  0  0  0  0  0  0  0  0  0  0  0
    3.9757    0.3924   -0.4310 O   0  0  0  0  0  0  0  0  0  0  0  0
   -1.6939   -1.3880   -0.2934 H   0  0  0  0  0  0  0  0  0  0  0  0
   -1.7757   -0.3580   -1.7421 H   0  0  0  0  0  0  0  0  0  0  0  0
   -0.1999    1.0980   -1.0381 H   0  0  0  0  0  0  0  0  0  0  0  0
   -0.5550    0.9940    0.6938 H   0  0  0  0  0  0  0  0  0  0  0  0
    0.9717   -0.6105    1.1149 H   0  0  0  0  0  0  0  0  0  0  0  0
    0.4300   -1.6312   -0.2958 H   0  0  0  0  0  0  0  0  0  0  0  0
    1.8691    1.0055   -0.6945 H   0  0  0  0  0  0  0  0  0  0  0  0
    1.6810   -0.3914   -1.8589 H   0  0  0  0  0  0  0  0  0  0  0  0
   -3.6806    0.5668   -0.8761 H   0  0  0  0  0  0  0  0  0  0  0  0
   -2.7050    1.2938    0.4153 H   0  0  0  0  0  0  0  0  0  0  0  0
   -3.4877   -0.3607    0.6342 H   0  0  0  0  0  0  0  0  0  0  0  0
    4.5825    0.3245    0.3575 H   0  0  0  0  0  0  0  0  0  0  0  0
  1  3  1  0
  1  2  1  0
  4  6  1  0
  4  5  1  0
  4 13  1  0
  4 14  1  0
  5 16  1  0
  5  7  1  0
  5 15  1  0
  6  8  1  0
  6 12  1  0
  6 11  1  0
  7 18  1  0
  7 17  1  0
  7  9  1  0
  8 19  1  0
  8 20  1  0
  8 21  1  0
  9 10  1  0
 10 22  1  0
M  RAD  1   2   2
M  END
