
     RDKit          3D

  9  8  0  0  0  0  0  0  0  0999 V2000
   -1.3859   -0.1196   -0.1029 C   0  0  0  0  0  0  0  0  0  0  0  0
    0.9912    0.5574   -0.0589 C   0  0  0  0  0  0  0  0  0  0  0  0
   -0.0833   -0.0462   -0.6726 O   0  0  0  0  0  0  0  0  0  0  0  0
    2.3094   -0.0425   -0.2290 C   0  0  0  0  0  3  0  0  0  0  0  0
   -1.4069    0.2204    0.9476 H   0  0  0  0  0  0  0  0  0  0  0  0
   -1.6400   -1.2100   -0.1242 H   0  0  0  0  0  0  0  0  0  0  0  0
   -2.0992    0.4408   -0.7248 H   0  0  0  0  0  0  0  0  0  0  0  0
    0.7491    1.4242    0.8127 O   0  0  0  0  0  0  0  0  0  0  0  0
    2.5654   -1.2244    0.1521 O   0  0  0  0  0  0  0  0  0  0  0  0
  1  3  1  0
  1  5  1  0
  1  6  1  0
  1  7  1  0
  2  4  1  0
  2  3  1  0
  2  8  2  0
  4  9  2  0
M  RAD  1   4   2
M  END
