
     RDKit          3D

 18 17  0  0  0  0  0  0  0  0999 V2000
   -0.4080   -0.4372   -0.6314 C   0  0  0  0  0  0  0  0  0  0  0  0
    0.6630   -1.1614    0.1787 C   0  0  0  0  0  0  0  0  0  0  0  0
   -2.4620    0.8028    0.0221 C   0  0  0  0  0  0  0  0  0  0  0  0
    2.2871    0.7266    0.6015 C   0  0  0  0  0  0  0  0  0  0  0  0
   -1.6558   -0.4512    0.1982 C   0  0  0  0  0  3  0  0  0  0  0  0
    1.9525   -0.4950   -0.2010 C   0  0  0  0  0  0  0  0  0  0  0  0
   -0.1113    0.6247   -0.7819 H   0  0  0  0  0  0  0  0  0  0  0  0
   -0.5146   -0.8877   -1.6268 H   0  0  0  0  0  0  0  0  0  0  0  0
    0.6293   -2.2105   -0.1457 H   0  0  0  0  0  0  0  0  0  0  0  0
    0.4497   -1.0322    1.2698 H   0  0  0  0  0  0  0  0  0  0  0  0
   -2.9480    0.7571   -0.9668 H   0  0  0  0  0  0  0  0  0  0  0  0
   -3.1991    0.8356    0.8364 H   0  0  0  0  0  0  0  0  0  0  0  0
   -1.7444    1.6485    0.0470 H   0  0  0  0  0  0  0  0  0  0  0  0
    2.8157    1.4911   -0.0070 H   0  0  0  0  0  0  0  0  0  0  0  0
    1.3842    1.1849    1.0523 H   0  0  0  0  0  0  0  0  0  0  0  0
    2.9567    0.4016    1.4266 H   0  0  0  0  0  0  0  0  0  0  0  0
   -2.2327   -1.3805    0.1421 H   0  0  0  0  0  0  0  0  0  0  0  0
    2.1379   -0.4174   -1.4141 O   0  0  0  0  0  0  0  0  0  0  0  0
  1  5  1  0
  1  2  1  0
  1  7  1  0
  1  8  1  0
  2  6  1  0
  2 10  1  0
  2  9  1  0
  3  5  1  0
  3 11  1  0
  3 12  1  0
  3 13  1  0
  4  6  1  0
  4 14  1  0
  4 15  1  0
  4 16  1  0
  5 17  1  0
  6 18  2  0
M  RAD  1   5   2
M  END
