
     RDKit          3D

 18 17  0  0  0  0  0  0  0  0999 V2000
   -0.5542    0.0331   -0.3230 C   0  0  0  0  0  0  0  0  0  0  0  0
    0.6496   -0.6827    0.2945 C   0  0  0  0  0  0  0  0  0  0  0  0
   -3.0544    0.3572   -0.1635 C   0  0  0  0  0  0  0  0  0  0  0  0
    2.9641    0.5063    0.4509 C   0  0  0  0  0  0  0  0  0  0  0  0
   -1.8473   -0.4093    0.3631 C   0  0  0  0  0  3  0  0  0  0  0  0
    1.9313   -0.2284   -0.3490 C   0  0  0  0  0  0  0  0  0  0  0  0
   -0.4289    1.1313   -0.1980 H   0  0  0  0  0  0  0  0  0  0  0  0
   -0.6145   -0.1995   -1.4092 H   0  0  0  0  0  0  0  0  0  0  0  0
    0.5490   -1.7815    0.1586 H   0  0  0  0  0  0  0  0  0  0  0  0
    0.6802   -0.4720    1.3863 H   0  0  0  0  0  0  0  0  0  0  0  0
   -3.1830    0.1750   -1.2518 H   0  0  0  0  0  0  0  0  0  0  0  0
   -3.9665    0.0154    0.3684 H   0  0  0  0  0  0  0  0  0  0  0  0
   -2.9255    1.4451    0.0175 H   0  0  0  0  0  0  0  0  0  0  0  0
    3.8406    0.7641   -0.1812 H   0  0  0  0  0  0  0  0  0  0  0  0
    2.5251    1.4429    0.8538 H   0  0  0  0  0  0  0  0  0  0  0  0
    3.3052   -0.1302    1.2939 H   0  0  0  0  0  0  0  0  0  0  0  0
   -2.0064   -1.5002    0.2187 H   0  0  0  0  0  0  0  0  0  0  0  0
    2.1357   -0.4666   -1.5300 O   0  0  0  0  0  0  0  0  0  0  0  0
  1  5  1  0
  1  2  1  0
  1  7  1  0
  1  8  1  0
  2  6  1  0
  2 10  1  0
  2  9  1  0
  3  5  1  0
  3 11  1  0
  3 12  1  0
  3 13  1  0
  4  6  1  0
  4 14  1  0
  4 15  1  0
  4 16  1  0
  5 17  1  0
  6 18  2  0
M  RAD  1   5   2
M  END
